1379657
     RDKit          2D

 22 23  0  0  0  0  0  0  0  0999 V2000
    2.5000    0.0000    0.0000 Br  0  0  0  0  0  0  0  0  0  0  0  0
   -6.0000    5.1962    0.0000 C   0  0  0  0  0  0  0  0  0  0  0  0
   -5.2500    3.8971    0.0000 C   0  0  0  0  0  0  0  0  0  0  0  0
   -6.0000    2.5981    0.0000 C   0  0  0  0  0  0  0  0  0  0  0  0
   -5.2500    1.2990    0.0000 C   0  0  0  0  0  0  0  0  0  0  0  0
   -3.7500    1.2990    0.0000 C   0  0  0  0  0  0  0  0  0  0  0  0
   -3.0000    0.0000    0.0000 S   0  0  0  0  0  0  0  0  0  0  0  0
   -3.7500   -1.2990    0.0000 C   0  0  0  0  0  0  0  0  0  0  0  0
   -5.2500   -1.2990    0.0000 C   0  0  0  0  0  0  0  0  0  0  0  0
   -6.0000   -2.5981    0.0000 C   0  0  0  0  0  0  0  0  0  0  0  0
   -5.2500   -3.8971    0.0000 C   0  0  0  0  0  0  0  0  0  0  0  0
   -3.7500   -3.8971    0.0000 C   0  0  0  0  0  0  0  0  0  0  0  0
   -3.0000   -2.5981    0.0000 C   0  0  0  0  0  0  0  0  0  0  0  0
   -1.5000   -2.5981    0.0000 N   0  0  0  0  0  0  0  0  0  0  0  0
   -0.7500   -3.8971    0.0000 C   0  0  0  0  0  0  0  0  0  0  0  0
    0.7500   -3.8971    0.0000 C   0  0  0  0  0  0  0  0  0  0  0  0
    1.5000   -2.5981    0.0000 N   0  0  0  0  0  0  0  0  0  0  0  0
    0.7500   -1.2990    0.0000 C   0  0  0  0  0  0  0  0  0  0  0  0
   -0.7500   -1.2990    0.0000 C   0  0  0  0  0  0  0  0  0  0  0  0
   -3.0000    2.5981    0.0000 C   0  0  0  0  0  0  0  0  0  0  0  0
   -1.5000    2.5981    0.0000 C   0  0  0  0  0  0  0  0  0  0  0  0
   -3.7500    3.8971    0.0000 C   0  0  0  0  0  0  0  0  0  0  0  0
  2  3  1  0
  3  4  2  0
  4  5  1  0
  5  6  2  0
  6  7  1  0
  7  8  1  0
  8  9  2  0
  9 10  1  0
 10 11  2  0
 11 12  1  0
 12 13  2  0
 13 14  1  0
 14 15  1  0
 15 16  1  0
 16 17  1  0
 17 18  1  0
 18 19  1  0
  6 20  1  0
 20 21  1  0
 20 22  2  0
 22  3  1  0
 13  8  1  0
 19 14  1  0
M  END
$$$$
674732
     RDKit          2D

 25 26  0  0  0  0  0  0  0  0999 V2000
    3.2500    0.0000    0.0000 Br  0  0  0  0  0  0  0  0  0  0  0  0
   -7.7515   -2.6587    0.0000 C   0  0  0  0  0  0  0  0  0  0  0  0
   -6.3812   -3.2688    0.0000 N   0  0  0  0  0  0  0  0  0  0  0  0
   -6.2244   -4.7606    0.0000 C   0  0  0  0  0  0  0  0  0  0  0  0
   -5.1677   -2.3871    0.0000 C   0  0  0  0  0  0  0  0  0  0  0  0
   -3.7974   -2.9972    0.0000 C   0  0  0  0  0  0  0  0  0  0  0  0
   -2.5838   -2.1155    0.0000 C   0  0  0  0  0  0  0  0  0  0  0  0
   -1.2135   -2.7256    0.0000 C   0  0  0  0  0  0  0  0  0  0  0  0
   -0.0000   -3.6073    0.0000 O   0  0  0  0  0  0  0  0  0  0  0  0
    1.2135   -2.7256    0.0000 C   0  0  0  0  0  0  0  0  0  0  0  0
    0.7500   -1.2990    0.0000 C   0  0  0  0  0  0  0  0  0  0  0  0
    1.5000    0.0000    0.0000 C   0  0  0  0  0  0  0  0  0  0  0  0
    0.7500    1.2990    0.0000 C   0  0  0  0  0  0  0  0  0  0  0  0
   -0.7500    1.2990    0.0000 C   0  0  0  0  0  0  0  0  0  0  0  0
   -1.5000    0.0000    0.0000 C   0  0  0  0  0  0  0  0  0  0  0  0
   -0.7500   -1.2990    0.0000 C   0  0  0  0  0  0  0  0  0  0  0  0
    1.5000    2.5981    0.0000 C   0  0  0  0  0  0  0  0  0  0  0  0
    2.2500    3.8971    0.0000 N   0  0  0  0  0  0  0  0  0  0  0  0
   -1.9635   -4.0247    0.0000 C   0  0  0  0  0  0  0  0  0  0  0  0
   -3.4635   -4.0247    0.0000 C   0  0  0  0  0  0  0  0  0  0  0  0
   -4.2135   -5.3237    0.0000 C   0  0  0  0  0  0  0  0  0  0  0  0
   -3.4635   -6.6227    0.0000 C   0  0  0  0  0  0  0  0  0  0  0  0
   -4.2135   -7.9218    0.0000 F   0  0  0  0  0  0  0  0  0  0  0  0
   -1.9635   -6.6227    0.0000 C   0  0  0  0  0  0  0  0  0  0  0  0
   -1.2135   -5.3237    0.0000 C   0  0  0  0  0  0  0  0  0  0  0  0
  2  3  1  0
  3  4  1  0
  3  5  1  0
  5  6  1  0
  6  7  1  0
  7  8  1  0
  8  9  1  0
  9 10  1  0
 10 11  1  0
 11 12  2  0
 12 13  1  0
 13 14  2  0
 14 15  1  0
 15 16  2  0
 13 17  1  0
 17 18  3  0
  8 19  1  0
 19 20  2  0
 20 21  1  0
 21 22  2  0
 22 23  1  0
 22 24  1  0
 24 25  2  0
 16  8  1  0
 16 11  1  0
 25 19  1  0
M  END
$$$$
674954
     RDKit          2D

 28 30  0  0  0  0  0  0  0  0999 V2000
    2.5000    0.0000    0.0000 Br  0  0  0  0  0  0  0  0  0  0  0  0
   -5.6213   -4.5165    0.0000 C   0  0  0  0  0  0  0  0  0  0  0  0
   -4.3223   -5.2665    0.0000 N   0  0  0  0  0  0  0  0  0  0  0  0
   -4.1655   -6.7583    0.0000 C   0  0  0  0  0  0  0  0  0  0  0  0
   -2.6983   -7.0701    0.0000 C   0  0  0  0  0  0  0  0  0  0  0  0
   -1.9483   -5.7711    0.0000 C   0  0  0  0  0  0  0  0  0  0  0  0
   -2.9520   -4.6564    0.0000 C   0  0  0  0  0  0  0  0  0  0  0  0
   -2.6401   -3.1891    0.0000 C   0  0  0  0  0  0  0  0  0  0  0  0
   -1.2135   -2.7256    0.0000 C   0  0  0  0  0  0  0  0  0  0  0  0
   -0.0000   -3.6073    0.0000 C   0  0  0  0  0  0  0  0  0  0  0  0
    1.2135   -2.7256    0.0000 N   0  0  0  0  0  0  0  0  0  0  0  0
    0.7500   -1.2990    0.0000 C   0  0  0  0  0  0  0  0  0  0  0  0
    1.5000    0.0000    0.0000 C   0  0  0  0  0  0  0  0  0  0  0  0
    0.7500    1.2990    0.0000 C   0  0  0  0  0  0  0  0  0  0  0  0
   -0.7500    1.2990    0.0000 C   0  0  0  0  0  0  0  0  0  0  0  0
   -1.5000    2.5981    0.0000 C   0  0  0  0  0  0  0  0  0  0  0  0
   -0.7500    3.8971    0.0000 C   0  0  0  0  0  0  0  0  0  0  0  0
   -1.5000    5.1962    0.0000 S   0  0  0  0  0  0  0  0  0  0  0  0
   -0.2010    5.9462    0.0000 O   0  0  0  0  0  0  0  0  0  0  0  0
   -2.7990    4.4462    0.0000 O   0  0  0  0  0  0  0  0  0  0  0  0
   -2.2500    6.4952    0.0000 C   0  0  0  0  0  0  0  0  0  0  0  0
   -1.5000    7.7942    0.0000 C   0  0  0  0  0  0  0  0  0  0  0  0
   -2.2500    9.0933    0.0000 C   0  0  0  0  0  0  0  0  0  0  0  0
   -3.7500    9.0933    0.0000 C   0  0  0  0  0  0  0  0  0  0  0  0
   -4.5000    7.7942    0.0000 C   0  0  0  0  0  0  0  0  0  0  0  0
   -3.7500    6.4952    0.0000 C   0  0  0  0  0  0  0  0  0  0  0  0
   -1.5000    0.0000    0.0000 C   0  0  0  0  0  0  0  0  0  0  0  0
   -0.7500   -1.2990    0.0000 C   0  0  0  0  0  0  0  0  0  0  0  0
  2  3  1  0
  3  4  1  0
  4  5  1  0
  5  6  1  0
  6  7  1  0
  7  8  1  1
  8  9  1  0
  9 10  2  0
 10 11  1  0
 11 12  1  0
 12 13  2  0
 13 14  1  0
 14 15  2  0
 15 16  1  0
 16 17  1  0
 17 18  1  0
 18 19  2  0
 18 20  2  0
 18 21  1  0
 21 22  2  0
 22 23  1  0
 23 24  2  0
 24 25  1  0
 25 26  2  0
 15 27  1  0
 27 28  2  0
  7  3  1  0
 28  9  1  0
 28 12  1  0
 26 21  1  0
M  END
$$$$
443255
     RDKit          2D

 22 24  0  0  0  0  0  0  0  0999 V2000
    6.5795    0.0000    0.0000 Br  0  0  0  0  0  0  0  0  0  0  0  0
   -0.8999   -7.4725    0.0000 C   0  0  0  0  0  0  0  0  0  0  0  0
   -1.0567   -5.9808    0.0000 O   0  0  0  0  0  0  0  0  0  0  0  0
    0.1568   -5.0991    0.0000 C   0  0  0  0  0  0  0  0  0  0  0  0
    1.5271   -5.7092    0.0000 C   0  0  0  0  0  0  0  0  0  0  0  0
    2.7406   -4.8275    0.0000 C   0  0  0  0  0  0  0  0  0  0  0  0
    2.5838   -3.3357    0.0000 C   0  0  0  0  0  0  0  0  0  0  0  0
    3.8940   -2.6052    0.0000 C   0  0  0  0  0  0  0  0  0  0  0  0
    4.1397   -1.1255    0.0000 N   0  0  0  0  0  0  0  0  0  0  0  0
    5.5795   -0.7049    0.0000 C   0  0  0  0  0  0  0  0  0  0  0  0
    3.1360   -0.0108    0.0000 C   0  0  0  0  0  0  0  0  0  0  0  0
    1.6387   -0.1005    0.0000 C   0  0  0  0  0  0  0  0  0  0  0  0
    0.7500   -1.2990    0.0000 C   0  0  0  0  0  0  0  0  0  0  0  0
    0.8000   -0.0000    0.0000 C   0  0  0  0  0  0  0  0  0  0  0  0
    0.4000    0.6928    0.0000 C   0  0  0  0  0  0  0  0  0  0  0  0
   -0.4000    0.6928    0.0000 C   0  0  0  0  0  0  0  0  0  0  0  0
   -1.5000    2.5981    0.0000 O   0  0  0  0  0  0  0  0  0  0  0  0
   -0.8000    0.0000    0.0000 C   0  0  0  0  0  0  0  0  0  0  0  0
   -0.7500   -1.2990    0.0000 C   0  0  0  0  0  0  0  0  0  0  0  0
   -1.2135   -2.7256    0.0000 O   0  0  0  0  0  0  0  0  0  0  0  0
    0.0000   -3.6073    0.0000 C   0  0  0  0  0  0  0  0  0  0  0  0
    1.2135   -2.7256    0.0000 C   0  0  0  0  0  0  0  0  0  0  0  0
  2  3  1  0
  3  4  1  0
  4  5  2  0
  5  6  1  0
  6  7  2  0
  7  8  1  0
  8  9  1  0
  9 10  1  0
  9 11  1  0
 11 12  1  0
 13 12  1  6
 13 14  1  0
 14 15  2  0
 15 16  1  0
 16 17  1  1
 16 18  1  0
 19 18  1  1
 19 20  1  0
 20 21  1  0
 21 22  2  0
 21  4  1  0
 22  7  1  0
 19 13  1  0
 22 13  1  0
M  END
$$$$
674886
     RDKit          2D

 33 36  0  0  0  0  0  0  0  0999 V2000
    2.2760    0.0000    0.0000 Br  0  0  0  0  0  0  0  0  0  0  0  0
   -8.9888    5.7376    0.0000 N   0  0  0  0  0  0  0  0  0  0  0  0
   -7.6185    6.3477    0.0000 C   0  0  0  0  0  0  0  0  0  0  0  0
   -6.4050    5.4660    0.0000 O   0  0  0  0  0  0  0  0  0  0  0  0
   -7.4617    7.8395    0.0000 C   0  0  0  0  0  0  0  0  0  0  0  0
   -5.9699    7.6827    0.0000 C   0  0  0  0  0  0  0  0  0  0  0  0
   -4.9662    8.7974    0.0000 C   0  0  0  0  0  0  0  0  0  0  0  0
   -3.5959    8.1873    0.0000 C   0  0  0  0  0  0  0  0  0  0  0  0
   -3.7527    6.6955    0.0000 N   0  0  0  0  0  0  0  0  0  0  0  0
   -2.6380    5.6918    0.0000 C   0  0  0  0  0  0  0  0  0  0  0  0
   -2.9499    4.2246    0.0000 C   0  0  0  0  0  0  0  0  0  0  0  0
   -1.8351    3.2209    0.0000 C   0  0  0  0  0  0  0  0  0  0  0  0
   -0.4086    3.6844    0.0000 C   0  0  0  0  0  0  0  0  0  0  0  0
    0.7062    2.6807    0.0000 C   0  0  0  0  0  0  0  0  0  0  0  0
    0.3943    1.2135    0.0000 C   0  0  0  0  0  0  0  0  0  0  0  0
    1.2760    0.0000    0.0000 O   0  0  0  0  0  0  0  0  0  0  0  0
    0.3943   -1.2135    0.0000 C   0  0  0  0  0  0  0  0  0  0  0  0
   -1.0323   -0.7500    0.0000 C   0  0  0  0  0  0  0  0  0  0  0  0
   -1.0323    0.7500    0.0000 C   0  0  0  0  0  0  0  0  0  0  0  0
   -2.1470    1.7537    0.0000 C   0  0  0  0  0  0  0  0  0  0  0  0
   -5.2199    6.3837    0.0000 C   0  0  0  0  0  0  0  0  0  0  0  0
   -8.9535    7.9963    0.0000 C   0  0  0  0  0  0  0  0  0  0  0  0
   -9.5636    9.3666    0.0000 C   0  0  0  0  0  0  0  0  0  0  0  0
  -11.0554    9.5234    0.0000 C   0  0  0  0  0  0  0  0  0  0  0  0
  -11.9371    8.3099    0.0000 C   0  0  0  0  0  0  0  0  0  0  0  0
  -11.3270    6.9396    0.0000 C   0  0  0  0  0  0  0  0  0  0  0  0
   -9.8352    6.7828    0.0000 C   0  0  0  0  0  0  0  0  0  0  0  0
   -7.3049    9.3313    0.0000 C   0  0  0  0  0  0  0  0  0  0  0  0
   -5.9346    9.9414    0.0000 C   0  0  0  0  0  0  0  0  0  0  0  0
   -5.7778   11.4332    0.0000 C   0  0  0  0  0  0  0  0  0  0  0  0
   -6.9913   12.3148    0.0000 C   0  0  0  0  0  0  0  0  0  0  0  0
   -8.3616   11.7047    0.0000 C   0  0  0  0  0  0  0  0  0  0  0  0
   -8.5184   10.2130    0.0000 C   0  0  0  0  0  0  0  0  0  0  0  0
  2  3  1  0
  3  4  2  0
  3  5  1  0
  6  5  1  6
  6  7  1  0
  7  8  1  0
  8  9  1  0
  9 10  1  0
 10 11  1  0
 11 12  1  0
 12 13  2  0
 13 14  1  0
 14 15  2  0
 15 16  1  0
 16 17  1  0
 17 18  1  0
 18 19  1  0
 19 20  2  0
  9 21  1  0
  5 22  1  0
 22 23  2  0
 23 24  1  0
 24 25  2  0
 25 26  1  0
 26 27  2  0
  5 28  1  0
 28 29  2  0
 29 30  1  0
 30 31  2  0
 31 32  1  0
 32 33  2  0
 21  6  1  0
 20 12  1  0
 19 15  1  0
 27 22  1  0
 33 28  1  0
M  END
$$$$
453722
     RDKit          2D

 16 16  0  0  0  0  0  0  0  0999 V2000
    6.0000   -2.5981    0.0000 Br  0  0  0  0  0  0  0  0  0  0  0  0
    5.2500   -1.2990    0.0000 C   0  0  0  0  0  0  0  0  0  0  0  0
    3.7500   -1.2990    0.0000 C   0  0  0  0  0  0  0  0  0  0  0  0
    3.0000    0.0000    0.0000 C   0  0  0  0  0  0  0  0  0  0  0  0
    3.7500    1.2990    0.0000 O   0  0  0  0  0  0  0  0  0  0  0  0
    1.5000    0.0000    0.0000 N   0  0  0  0  0  0  0  0  0  0  0  0
    0.7500   -1.2990    0.0000 C   0  0  0  0  0  0  0  0  0  0  0  0
   -0.7500   -1.2990    0.0000 C   0  0  0  0  0  0  0  0  0  0  0  0
   -1.5000    0.0000    0.0000 N   0  0  0  0  0  0  0  0  0  0  0  0
   -0.7500    1.2990    0.0000 C   0  0  0  0  0  0  0  0  0  0  0  0
    0.7500    1.2990    0.0000 C   0  0  0  0  0  0  0  0  0  0  0  0
   -3.0000    0.0000    0.0000 C   0  0  0  0  0  0  0  0  0  0  0  0
   -3.7500   -1.2990    0.0000 O   0  0  0  0  0  0  0  0  0  0  0  0
   -3.7500    1.2990    0.0000 C   0  0  0  0  0  0  0  0  0  0  0  0
   -5.2500    1.2990    0.0000 C   0  0  0  0  0  0  0  0  0  0  0  0
   -6.0000    2.5981    0.0000 Br  0  0  0  0  0  0  0  0  0  0  0  0
  1  2  1  0
  2  3  1  0
  3  4  1  0
  4  5  2  0
  4  6  1  0
  6  7  1  0
  7  8  1  0
  8  9  1  0
  9 10  1  0
 10 11  1  0
  9 12  1  0
 12 13  2  0
 12 14  1  0
 14 15  1  0
 15 16  1  0
 11  6  1  0
M  END
$$$$
75752
     RDKit          2D

 13 14  0  0  0  0  0  0  0  0999 V2000
   -5.8051   -5.5834    0.0000 C   0  0  0  0  0  0  0  0  0  0  0  0
   -4.3786   -5.1199    0.0000 C   0  0  0  0  0  0  0  0  0  0  0  0
   -2.9520   -4.6564    0.0000 C   0  0  0  0  0  0  0  0  0  0  0  0
   -2.6401   -3.1891    0.0000 N   0  0  0  0  0  0  0  0  0  0  0  0
   -1.2135   -2.7256    0.0000 C   0  0  0  0  0  0  0  0  0  0  0  0
   -0.0000   -3.6073    0.0000 C   0  0  0  0  0  0  0  0  0  0  0  0
    1.2135   -2.7256    0.0000 C   0  0  0  0  0  0  0  0  0  0  0  0
    0.7500   -1.2990    0.0000 C   0  0  0  0  0  0  0  0  0  0  0  0
    1.5000    0.0000    0.0000 C   0  0  0  0  0  0  0  0  0  0  0  0
    0.7500    1.2990    0.0000 C   0  0  0  0  0  0  0  0  0  0  0  0
   -0.7500    1.2990    0.0000 C   0  0  0  0  0  0  0  0  0  0  0  0
   -1.5000    0.0000    0.0000 C   0  0  0  0  0  0  0  0  0  0  0  0
   -0.7500   -1.2990    0.0000 C   0  0  0  0  0  0  0  0  0  0  0  0
  1  2  3  0
  2  3  1  0
  3  4  1  0
  5  4  1  1
  5  6  1  0
  6  7  1  0
  7  8  1  0
  8  9  2  0
  9 10  1  0
 10 11  2  0
 11 12  1  0
 12 13  2  0
 13  5  1  0
 13  8  1  0
M  END
$$$$
26590
     RDKit          2D

 14 16  0  0  0  0  0  0  0  0999 V2000
    1.5000    0.0000    0.0000 C   0  0  0  0  0  0  0  0  0  0  0  0
    0.7500   -1.2990    0.0000 C   0  0  0  0  0  0  0  0  0  0  0  0
   -0.7500   -1.2990    0.0000 C   0  0  0  0  0  0  0  0  0  0  0  0
   -1.5000    0.0000    0.0000 C   0  0  0  0  0  0  0  0  0  0  0  0
   -2.9672    0.3119    0.0000 N   0  0  0  0  0  0  0  0  0  0  0  0
   -3.1240    1.8037    0.0000 C   0  0  0  0  0  0  0  0  0  0  0  0
   -1.7537    2.4138    0.0000 N   0  0  0  0  0  0  0  0  0  0  0  0
   -0.7500    1.2990    0.0000 C   0  0  0  0  0  0  0  0  0  0  0  0
    0.7500    1.2990    0.0000 C   0  0  0  0  0  0  0  0  0  0  0  0
   -4.4231    2.5537    0.0000 C   0  0  0  0  0  0  0  0  0  0  0  0
   -5.7934    1.9435    0.0000 C   0  0  0  0  0  0  0  0  0  0  0  0
   -6.7971    3.0583    0.0000 S   0  0  0  0  0  0  0  0  0  0  0  0
   -6.0471    4.3573    0.0000 C   0  0  0  0  0  0  0  0  0  0  0  0
   -4.5798    4.0454    0.0000 N   0  0  0  0  0  0  0  0  0  0  0  0
  1  2  2  0
  2  3  1  0
  3  4  2  0
  4  5  1  0
  5  6  1  0
  6  7  2  0
  7  8  1  0
  8  9  2  0
  6 10  1  0
 10 11  2  0
 11 12  1  0
 12 13  1  0
 13 14  2  0
  9  1  1  0
  8  4  1  0
 14 10  1  0
M  END
$$$$
384948
     RDKit          2D

 14 16  0  0  0  0  0  0  0  0999 V2000
    1.2760    0.0000    0.0000 C   0  0  0  0  0  0  0  0  0  0  0  0
    0.3943    1.2135    0.0000 C   0  0  0  0  0  0  0  0  0  0  0  0
   -1.0323    0.7500    0.0000 N   0  0  0  0  0  0  0  0  0  0  0  0
   -2.4589    1.2135    0.0000 C   0  0  0  0  0  0  0  0  0  0  0  0
   -3.3405    0.0000    0.0000 C   0  0  0  0  0  0  0  0  0  0  0  0
   -2.4589   -1.2135    0.0000 N   0  0  0  0  0  0  0  0  0  0  0  0
   -1.0323   -0.7500    0.0000 C   0  0  0  0  0  0  0  0  0  0  0  0
    0.3943   -1.2135    0.0000 S   0  0  0  0  0  0  0  0  0  0  0  0
   -4.8405    0.0000    0.0000 C   0  0  0  0  0  0  0  0  0  0  0  0
   -5.5905    1.2990    0.0000 C   0  0  0  0  0  0  0  0  0  0  0  0
   -7.0905    1.2990    0.0000 C   0  0  0  0  0  0  0  0  0  0  0  0
   -7.8405    0.0000    0.0000 C   0  0  0  0  0  0  0  0  0  0  0  0
   -7.0905   -1.2990    0.0000 C   0  0  0  0  0  0  0  0  0  0  0  0
   -5.5905   -1.2990    0.0000 C   0  0  0  0  0  0  0  0  0  0  0  0
  1  2  1  0
  2  3  1  0
  3  4  1  0
  4  5  1  0
  5  6  1  0
  6  7  2  0
  7  8  1  0
  5  9  1  1
  9 10  2  0
 10 11  1  0
 11 12  2  0
 12 13  1  0
 13 14  2  0
  8  1  1  0
  7  3  1  0
 14  9  1  0
M  END
$$$$
675221
     RDKit          2D

 10 12  0  0  0  0  0  0  0  0999 V2000
    1.5000    0.0000    0.0000 C   0  0  0  0  0  0  0  0  0  0  0  0
    0.7500   -1.2990    0.0000 N   0  0  0  0  0  0  0  0  0  0  0  0
    2.2500   -1.2990    0.0000 C   0  0  0  0  0  0  0  0  0  0  0  0
    3.0000   -0.0000    0.0000 N   0  0  0  0  0  0  0  0  0  0  0  0
   -0.2010    0.7500    0.0000 C   0  0  0  0  0  0  0  0  0  0  0  0
   -1.5000    0.0000    0.0000 N   0  0  0  0  0  0  0  0  0  0  0  0
   -0.7500    1.2990    0.0000 C   0  0  0  0  0  0  0  0  0  0  0  0
    0.7500    1.2990    0.0000 N   0  0  0  0  0  0  0  0  0  0  0  0
    2.2500    1.2990    0.0000 C   0  0  0  0  0  0  0  0  0  0  0  0
   -0.7500   -1.2990    0.0000 C   0  0  0  0  0  0  0  0  0  0  0  0
  1  2  1  0
  2  3  1  0
  3  4  1  0
  4  5  1  0
  5  6  1  0
  6  7  1  0
  7  8  1  0
  8  9  1  0
  6 10  1  0
  8  1  1  0
 10  2  1  0
  9  4  1  0
M  END
$$$$
330452
     RDKit          2D

 16 19  0  0  0  0  0  0  0  0999 V2000
    1.5000    0.0000    0.0000 C   0  0  0  0  0  0  0  0  0  0  0  0
    0.7500   -1.2990    0.0000 N   0  0  0  0  0  0  0  0  0  0  0  0
   -0.7500   -1.2990    0.0000 C   0  0  0  0  0  0  0  0  0  0  0  0
   -1.5000    0.0000    0.0000 C   0  0  0  0  0  0  0  0  0  0  0  0
   -0.7500    1.2990    0.0000 C   0  0  0  0  0  0  0  0  0  0  0  0
    0.7500    1.2990    0.0000 C   0  0  0  0  0  0  0  0  0  0  0  0
   -0.3647    2.3027    0.0000 C   0  0  0  0  0  0  0  0  0  0  0  0
   -0.3647    3.8027    0.0000 C   0  0  0  0  0  0  0  0  0  0  0  0
   -1.6638    4.5527    0.0000 C   0  0  0  0  0  0  0  0  0  0  0  0
   -1.6638    6.0527    0.0000 N   0  0  0  0  0  0  0  0  0  0  0  0
   -2.9628    6.8027    0.0000 C   0  0  0  0  0  0  0  0  0  0  0  0
   -4.2618    6.0527    0.0000 C   0  0  0  0  0  0  0  0  0  0  0  0
   -4.2618    4.5527    0.0000 N   0  0  0  0  0  0  0  0  0  0  0  0
   -2.9628    3.8027    0.0000 C   0  0  0  0  0  0  0  0  0  0  0  0
   -2.9628    2.3027    0.0000 C   0  0  0  0  0  0  0  0  0  0  0  0
   -1.6638    1.5527    0.0000 C   0  0  0  0  0  0  0  0  0  0  0  0
  1  2  1  0
  2  3  1  0
  3  4  1  0
  4  5  1  0
  5  6  1  0
  6  7  1  0
  7  8  2  0
  8  9  1  0
  9 10  2  0
 10 11  1  0
 11 12  2  0
 12 13  1  0
 13 14  2  0
 14 15  1  0
 15 16  2  0
  6  1  1  0
 16  4  1  0
 16  7  1  0
 14  9  1  0
M  END
$$$$
399873
     RDKit          2D

 35 39  0  0  0  0  0  0  0  0999 V2000
   -9.2860  -12.0882    0.0000 C   0  0  0  0  0  0  0  0  0  0  0  0
   -8.1713  -11.0845    0.0000 C   0  0  0  0  0  0  0  0  0  0  0  0
   -7.0565  -10.0808    0.0000 C   0  0  0  0  0  0  0  0  0  0  0  0
   -5.9418   -9.0771    0.0000 C   0  0  0  0  0  0  0  0  0  0  0  0
   -6.2537   -7.6099    0.0000 N   0  0  0  0  0  0  0  0  0  0  0  0
   -7.6240   -6.9998    0.0000 C   0  0  0  0  0  0  0  0  0  0  0  0
   -7.4672   -5.5080    0.0000 N   0  0  0  0  0  0  0  0  0  0  0  0
   -6.0000   -5.1962    0.0000 C   0  0  0  0  0  0  0  0  0  0  0  0
   -5.2500   -3.8971    0.0000 N   0  0  0  0  0  0  0  0  0  0  0  0
   -6.0000   -2.5981    0.0000 C   0  0  0  0  0  0  0  0  0  0  0  0
   -3.7500   -3.8971    0.0000 C   0  0  0  0  0  0  0  0  0  0  0  0
   -3.0000   -2.5981    0.0000 O   0  0  0  0  0  0  0  0  0  0  0  0
   -3.0000   -5.1962    0.0000 N   0  0  0  0  0  0  0  0  0  0  0  0
   -1.5000   -5.1962    0.0000 C   0  0  0  0  0  0  0  0  0  0  0  0
   -0.7500   -3.8971    0.0000 C   0  0  0  0  0  0  0  0  0  0  0  0
    0.7500   -3.8971    0.0000 N   0  0  0  0  0  0  0  0  0  0  0  0
    1.5000   -2.5981    0.0000 C   0  0  0  0  0  0  0  0  0  0  0  0
    3.0000   -2.5981    0.0000 C   0  0  0  0  0  0  0  0  0  0  0  0
    0.7500   -1.2990    0.0000 C   0  0  0  0  0  0  0  0  0  0  0  0
    1.5000    0.0000    0.0000 C   0  0  0  0  0  0  0  0  0  0  0  0
    0.7500    1.2990    0.0000 C   0  0  0  0  0  0  0  0  0  0  0  0
   -0.7500    1.2990    0.0000 C   0  0  0  0  0  0  0  0  0  0  0  0
   -1.5000    0.0000    0.0000 C   0  0  0  0  0  0  0  0  0  0  0  0
   -0.7500   -1.2990    0.0000 C   0  0  0  0  0  0  0  0  0  0  0  0
   -1.5000   -2.5981    0.0000 N   0  0  0  0  0  0  0  0  0  0  0  0
   -3.7500   -6.4952    0.0000 C   0  0  0  0  0  0  0  0  0  0  0  0
   -3.0000   -7.7942    0.0000 O   0  0  0  0  0  0  0  0  0  0  0  0
   -5.2500   -6.4952    0.0000 C   0  0  0  0  0  0  0  0  0  0  0  0
   -8.9231   -7.7498    0.0000 N   0  0  0  0  0  0  0  0  0  0  0  0
  -10.2221   -6.9998    0.0000 C   0  0  0  0  0  0  0  0  0  0  0  0
  -11.5211   -7.7498    0.0000 C   0  0  0  0  0  0  0  0  0  0  0  0
  -11.5211   -9.2498    0.0000 C   0  0  0  0  0  0  0  0  0  0  0  0
  -10.2221   -9.9998    0.0000 C   0  0  0  0  0  0  0  0  0  0  0  0
  -10.2221  -11.4998    0.0000 N   0  0  0  0  0  0  0  0  0  0  0  0
   -8.9231   -9.2498    0.0000 C   0  0  0  0  0  0  0  0  0  0  0  0
  1  2  1  0
  2  3  3  0
  3  4  1  0
  4  5  1  0
  5  6  1  0
  6  7  2  0
  7  8  1  0
  8  9  1  0
  9 10  1  0
  9 11  1  0
 11 12  2  0
 11 13  1  0
 13 14  1  0
 14 15  1  0
 15 16  2  0
 16 17  1  0
 17 18  1  0
 17 19  2  0
 19 20  1  0
 20 21  2  0
 21 22  1  0
 22 23  2  0
 23 24  1  0
 24 25  2  0
 13 26  1  0
 26 27  2  0
 26 28  1  0
  6 29  1  0
 29 30  1  0
 30 31  1  0
 31 32  1  0
 32 33  1  0
 33 34  1  6
 33 35  1  0
 28  5  1  0
 28  8  2  0
 25 15  1  0
 24 19  1  0
 35 29  1  0
M  END
$$$$
712273
     RDKit          2D

 32 36  0  0  0  0  0  0  0  0999 V2000
   -5.7135  -10.5199    0.0000 C   0  0  0  0  0  0  0  0  0  0  0  0
   -4.9635   -9.2208    0.0000 C   0  0  0  0  0  0  0  0  0  0  0  0
   -4.2135   -7.9218    0.0000 C   0  0  0  0  0  0  0  0  0  0  0  0
   -3.4635   -6.6227    0.0000 C   0  0  0  0  0  0  0  0  0  0  0  0
   -4.8980   -6.1842    0.0000 O   0  0  0  0  0  0  0  0  0  0  0  0
   -2.2500   -7.5044    0.0000 C   0  0  0  0  0  0  0  0  0  0  0  0
   -1.0365   -6.6227    0.0000 C   0  0  0  0  0  0  0  0  0  0  0  0
   -1.5000   -5.1962    0.0000 C   0  0  0  0  0  0  0  0  0  0  0  0
   -0.7500   -3.8971    0.0000 C   0  0  0  0  0  0  0  0  0  0  0  0
    0.7500   -3.8971    0.0000 C   0  0  0  0  0  0  0  0  0  0  0  0
    1.5000   -2.5981    0.0000 C   0  0  0  0  0  0  0  0  0  0  0  0
    0.7500   -1.2990    0.0000 C   0  0  0  0  0  0  0  0  0  0  0  0
    1.5000    0.0000    0.0000 C   0  0  0  0  0  0  0  0  0  0  0  0
    0.7500    1.2990    0.0000 C   0  0  0  0  0  0  0  0  0  0  0  0
    1.5000    2.5981    0.0000 O   0  0  0  0  0  0  0  0  0  0  0  0
   -0.7500    1.2990    0.0000 C   0  0  0  0  0  0  0  0  0  0  0  0
   -1.5000    0.0000    0.0000 C   0  0  0  0  0  0  0  0  0  0  0  0
   -0.7500   -1.2990    0.0000 C   0  0  0  0  0  0  0  0  0  0  0  0
   -1.5000   -2.5981    0.0000 C   0  0  0  0  0  0  0  0  0  0  0  0
   -3.0000   -2.5981    0.0000 C   0  0  0  0  0  0  0  0  0  0  0  0
   -3.7500   -3.8971    0.0000 C   0  0  0  0  0  0  0  0  0  0  0  0
   -3.0000   -5.1962    0.0000 C   0  0  0  0  0  0  0  0  0  0  0  0
   -4.4998   -5.1699    0.0000 C   0  0  0  0  0  0  0  0  0  0  0  0
   -3.7500   -1.2990    0.0000 C   0  0  0  0  0  0  0  0  0  0  0  0
   -3.0000    0.0000    0.0000 C   0  0  0  0  0  0  0  0  0  0  0  0
   -3.7500    1.2990    0.0000 C   0  0  0  0  0  0  0  0  0  0  0  0
   -5.2500    1.2990    0.0000 C   0  0  0  0  0  0  0  0  0  0  0  0
   -6.0000    0.0000    0.0000 C   0  0  0  0  0  0  0  0  0  0  0  0
   -5.2500   -1.2990    0.0000 C   0  0  0  0  0  0  0  0  0  0  0  0
   -6.0000    2.5981    0.0000 N   0  0  0  0  0  0  0  0  0  0  0  0
   -5.2500    3.8971    0.0000 C   0  0  0  0  0  0  0  0  0  0  0  0
   -7.5000    2.5981    0.0000 C   0  0  0  0  0  0  0  0  0  0  0  0
  1  2  1  0
  2  3  3  0
  3  4  1  0
  4  5  1  6
  4  6  1  0
  6  7  1  0
  8  7  1  6
  8  9  1  0
  9 10  1  1
 10 11  1  0
 11 12  1  0
 12 13  2  0
 13 14  1  0
 14 15  2  0
 14 16  1  0
 16 17  1  0
 17 18  1  0
 18 19  2  0
 19 20  1  0
 20 21  1  0
 21 22  1  0
 22 23  1  6
 20 24  1  6
 24 25  2  0
 25 26  1  0
 26 27  2  0
 27 28  1  0
 28 29  2  0
 27 30  1  0
 30 31  1  0
 30 32  1  0
 22  4  1  0
 22  8  1  0
 19  9  1  0
 18 12  1  0
 29 24  1  0
M  END
$$$$
319858
     RDKit          2D

 33 37  0  0  0  0  0  0  0  0999 V2000
    0.7500   -6.4952    0.0000 C   0  0  0  0  0  0  0  0  0  0  0  0
    1.5000   -5.1962    0.0000 C   0  0  0  0  0  0  0  0  0  0  0  0
    3.0000   -5.1962    0.0000 O   0  0  0  0  0  0  0  0  0  0  0  0
    0.7500   -3.8971    0.0000 C   0  0  0  0  0  0  0  0  0  0  0  0
    1.5000   -2.5981    0.0000 C   0  0  0  0  0  0  0  0  0  0  0  0
    3.0000   -2.5981    0.0000 C   0  0  0  0  0  0  0  0  0  0  0  0
    0.7500   -1.2990    0.0000 C   0  0  0  0  0  0  0  0  0  0  0  0
    1.5000    0.0000    0.0000 C   0  0  0  0  0  0  0  0  0  0  0  0
    0.7500    1.2990    0.0000 N   0  0  0  0  0  0  0  0  0  0  0  0
   -0.7500    1.2990    0.0000 C   0  0  0  0  0  0  0  0  0  0  0  0
   -1.5000    2.5981    0.0000 N   0  0  0  0  0  0  0  0  0  0  0  0
   -0.7500    3.8971    0.0000 C   0  0  0  0  0  0  0  0  0  0  0  0
    0.7500    3.8971    0.0000 C   0  0  0  0  0  0  0  0  0  0  0  0
    1.5000    5.1962    0.0000 C   0  0  0  0  0  0  0  0  0  0  0  0
    0.7500    6.4952    0.0000 C   0  0  0  0  0  0  0  0  0  0  0  0
   -0.7500    6.4952    0.0000 C   0  0  0  0  0  0  0  0  0  0  0  0
   -1.5000    5.1962    0.0000 N   0  0  0  0  0  0  0  0  0  0  0  0
    1.5000    7.7942    0.0000 N   0  0  0  0  0  0  0  0  0  0  0  0
    3.0000    7.7942    0.0000 C   0  0  0  0  0  0  0  0  0  0  0  0
    3.7500    9.0933    0.0000 C   0  0  0  0  0  0  0  0  0  0  0  0
    3.0000   10.3923    0.0000 N   0  0  0  0  0  0  0  0  0  0  0  0
    1.5000   10.3923    0.0000 C   0  0  0  0  0  0  0  0  0  0  0  0
    0.7500    9.0933    0.0000 C   0  0  0  0  0  0  0  0  0  0  0  0
   -1.5000    0.0000    0.0000 N   0  0  0  0  0  0  0  0  0  0  0  0
   -0.7500   -1.2990    0.0000 C   0  0  0  0  0  0  0  0  0  0  0  0
   -1.5000   -2.5981    0.0000 N   0  0  0  0  0  0  0  0  0  0  0  0
   -3.0000   -2.5981    0.0000 C   0  0  0  0  0  0  0  0  0  0  0  0
   -3.8817   -3.8116    0.0000 C   0  0  0  0  0  0  0  0  0  0  0  0
   -5.3083   -3.3481    0.0000 C   0  0  0  0  0  0  0  0  0  0  0  0
   -5.3083   -1.8481    0.0000 C   0  0  0  0  0  0  0  0  0  0  0  0
   -3.8817   -1.3846    0.0000 C   0  0  0  0  0  0  0  0  0  0  0  0
   -0.7500   -3.8971    0.0000 C   0  0  0  0  0  0  0  0  0  0  0  0
   -1.5000   -5.1962    0.0000 O   0  0  0  0  0  0  0  0  0  0  0  0
  1  2  1  0
  2  3  2  0
  2  4  1  0
  4  5  2  0
  5  6  1  0
  5  7  1  0
  7  8  2  0
  8  9  1  0
  9 10  2  0
 10 11  1  0
 11 12  1  0
 12 13  2  0
 13 14  1  0
 14 15  2  0
 15 16  1  0
 16 17  2  0
 15 18  1  0
 18 19  1  0
 19 20  1  0
 20 21  1  0
 21 22  1  0
 22 23  1  0
 10 24  1  0
 24 25  2  0
 25 26  1  0
 26 27  1  0
 27 28  1  0
 28 29  1  0
 29 30  1  0
 30 31  1  0
 26 32  1  0
 32 33  2  0
 32  4  1  0
 25  7  1  0
 17 12  1  0
 23 18  1  0
 31 27  1  0
M  END
$$$$
454070
     RDKit          2D

 22 23  0  0  0  0  0  0  0  0999 V2000
    3.7500   -1.2990    0.0000 C   0  0  0  0  0  0  0  0  0  0  0  0
    3.0000    0.0000    0.0000 C   0  0  0  0  0  0  0  0  0  0  0  0
    3.7500    1.2990    0.0000 O   0  0  0  0  0  0  0  0  0  0  0  0
    1.5000    0.0000    0.0000 C   0  0  0  0  0  0  0  0  0  0  0  0
    0.7500   -1.2990    0.0000 C   0  0  0  0  0  0  0  0  0  0  0  0
   -0.7500   -1.2990    0.0000 C   0  0  0  0  0  0  0  0  0  0  0  0
   -1.5000    0.0000    0.0000 C   0  0  0  0  0  0  0  0  0  0  0  0
   -0.7500    1.2990    0.0000 C   0  0  0  0  0  0  0  0  0  0  0  0
    0.7500    1.2990    0.0000 C   0  0  0  0  0  0  0  0  0  0  0  0
   -3.0000    0.0000    0.0000 S   0  0  0  0  0  0  0  0  0  0  0  0
   -3.0000    1.5000    0.0000 O   0  0  0  0  0  0  0  0  0  0  0  0
   -3.0000   -1.5000    0.0000 O   0  0  0  0  0  0  0  0  0  0  0  0
   -4.5000    0.0000    0.0000 N   0  0  0  0  0  0  0  0  0  0  0  0
   -5.2500   -1.2990    0.0000 C   0  0  0  0  0  0  0  0  0  0  0  0
   -4.5000   -2.5981    0.0000 O   0  0  0  0  0  0  0  0  0  0  0  0
   -6.7500   -1.2990    0.0000 N   0  0  0  0  0  0  0  0  0  0  0  0
   -7.5000   -2.5981    0.0000 C   0  0  0  0  0  0  0  0  0  0  0  0
   -9.0000   -2.5981    0.0000 C   0  0  0  0  0  0  0  0  0  0  0  0
   -9.7500   -3.8971    0.0000 C   0  0  0  0  0  0  0  0  0  0  0  0
   -9.0000   -5.1962    0.0000 C   0  0  0  0  0  0  0  0  0  0  0  0
   -7.5000   -5.1962    0.0000 C   0  0  0  0  0  0  0  0  0  0  0  0
   -6.7500   -3.8971    0.0000 C   0  0  0  0  0  0  0  0  0  0  0  0
  1  2  1  0
  2  3  2  0
  2  4  1  0
  4  5  2  0
  5  6  1  0
  6  7  2  0
  7  8  1  0
  8  9  2  0
  7 10  1  0
 10 11  2  0
 10 12  2  0
 10 13  1  0
 13 14  1  0
 14 15  2  0
 14 16  1  0
 16 17  1  0
 17 18  1  0
 18 19  1  0
 19 20  1  0
 20 21  1  0
 21 22  1  0
  9  4  1  0
 22 17  1  0
M  END
$$$$
453721
     RDKit          2D

 29 32  0  0  0  0  0  0  0  0999 V2000
   -3.0000   -7.7942    0.0000 C   0  0  0  0  0  0  0  0  0  0  0  0
   -1.5000   -7.7942    0.0000 C   0  0  0  0  0  0  0  0  0  0  0  0
   -0.7500   -9.0933    0.0000 O   0  0  0  0  0  0  0  0  0  0  0  0
   -0.7500   -6.4952    0.0000 C   0  0  0  0  0  0  0  0  0  0  0  0
    0.7500   -6.4952    0.0000 C   0  0  0  0  0  0  0  0  0  0  0  0
    1.5000   -5.1962    0.0000 C   0  0  0  0  0  0  0  0  0  0  0  0
    0.7500   -3.8971    0.0000 C   0  0  0  0  0  0  0  0  0  0  0  0
    1.5000   -2.5981    0.0000 S   0  0  0  0  0  0  0  0  0  0  0  0
    0.7500   -1.2990    0.0000 C   0  0  0  0  0  0  0  0  0  0  0  0
    1.5000    0.0000    0.0000 C   0  0  0  0  0  0  0  0  0  0  0  0
    0.7500    1.2990    0.0000 C   0  0  0  0  0  0  0  0  0  0  0  0
   -0.7500    1.2990    0.0000 C   0  0  0  0  0  0  0  0  0  0  0  0
   -1.5000    0.0000    0.0000 C   0  0  0  0  0  0  0  0  0  0  0  0
   -0.7500   -1.2990    0.0000 C   0  0  0  0  0  0  0  0  0  0  0  0
   -1.5000   -2.5981    0.0000 N   0  0  0  0  0  0  0  0  0  0  0  0
   -3.0000   -2.5981    0.0000 C   0  0  0  0  0  0  0  0  0  0  0  0
   -3.7500   -1.2990    0.0000 C   0  0  0  0  0  0  0  0  0  0  0  0
   -5.2500   -1.2990    0.0000 C   0  0  0  0  0  0  0  0  0  0  0  0
   -6.0000    0.0000    0.0000 N   0  0  0  0  0  0  0  0  0  0  0  0
   -5.2500    1.2990    0.0000 C   0  0  0  0  0  0  0  0  0  0  0  0
   -6.0000    2.5981    0.0000 C   0  0  0  0  0  0  0  0  0  0  0  0
   -7.5000    2.5981    0.0000 C   0  0  0  0  0  0  0  0  0  0  0  0
   -8.2500    3.8971    0.0000 C   0  0  0  0  0  0  0  0  0  0  0  0
   -7.5000    5.1962    0.0000 C   0  0  0  0  0  0  0  0  0  0  0  0
   -8.2500    6.4952    0.0000 O   0  0  0  0  0  0  0  0  0  0  0  0
   -8.2500    1.2990    0.0000 C   0  0  0  0  0  0  0  0  0  0  0  0
   -7.5000    0.0000    0.0000 C   0  0  0  0  0  0  0  0  0  0  0  0
   -0.7500   -3.8971    0.0000 C   0  0  0  0  0  0  0  0  0  0  0  0
   -1.5000   -5.1962    0.0000 C   0  0  0  0  0  0  0  0  0  0  0  0
  1  2  1  0
  2  3  2  0
  2  4  1  0
  4  5  2  0
  5  6  1  0
  6  7  2  0
  7  8  1  0
  8  9  1  0
  9 10  2  0
 10 11  1  0
 11 12  2  0
 12 13  1  0
 13 14  2  0
 14 15  1  0
 15 16  1  0
 16 17  1  0
 17 18  1  0
 18 19  1  0
 19 20  1  0
 20 21  1  0
 21 22  1  0
 22 23  1  0
 23 24  1  0
 24 25  1  0
 22 26  1  0
 26 27  1  0
 15 28  1  0
 28 29  2  0
 29  4  1  0
 28  7  1  0
 14  9  1  0
 27 19  1  0
M  END
$$$$
147927
     RDKit          2D

 29 32  0  0  0  0  0  0  0  0999 V2000
   -3.0000   -7.7942    0.0000 C   0  0  0  0  0  0  0  0  0  0  0  0
   -1.5000   -7.7942    0.0000 C   0  0  0  0  0  0  0  0  0  0  0  0
   -0.7500   -9.0933    0.0000 O   0  0  0  0  0  0  0  0  0  0  0  0
   -0.7500   -6.4952    0.0000 C   0  0  0  0  0  0  0  0  0  0  0  0
    0.7500   -6.4952    0.0000 C   0  0  0  0  0  0  0  0  0  0  0  0
    1.5000   -5.1962    0.0000 C   0  0  0  0  0  0  0  0  0  0  0  0
    0.7500   -3.8971    0.0000 C   0  0  0  0  0  0  0  0  0  0  0  0
    1.5000   -2.5981    0.0000 S   0  0  0  0  0  0  0  0  0  0  0  0
    0.7500   -1.2990    0.0000 C   0  0  0  0  0  0  0  0  0  0  0  0
    1.5000    0.0000    0.0000 C   0  0  0  0  0  0  0  0  0  0  0  0
    0.7500    1.2990    0.0000 C   0  0  0  0  0  0  0  0  0  0  0  0
   -0.7500    1.2990    0.0000 C   0  0  0  0  0  0  0  0  0  0  0  0
   -1.5000    0.0000    0.0000 C   0  0  0  0  0  0  0  0  0  0  0  0
   -0.7500   -1.2990    0.0000 C   0  0  0  0  0  0  0  0  0  0  0  0
   -1.5000   -2.5981    0.0000 N   0  0  0  0  0  0  0  0  0  0  0  0
   -3.0000   -2.5981    0.0000 C   0  0  0  0  0  0  0  0  0  0  0  0
   -3.7500   -1.2990    0.0000 C   0  0  0  0  0  0  0  0  0  0  0  0
   -5.2500   -1.2990    0.0000 C   0  0  0  0  0  0  0  0  0  0  0  0
   -6.0000    0.0000    0.0000 N   0  0  0  0  0  0  0  0  0  0  0  0
   -5.2500    1.2990    0.0000 C   0  0  0  0  0  0  0  0  0  0  0  0
   -6.0000    2.5981    0.0000 C   0  0  0  0  0  0  0  0  0  0  0  0
   -7.5000    2.5981    0.0000 N   0  0  0  0  0  0  0  0  0  0  0  0
   -8.2500    3.8971    0.0000 C   0  0  0  0  0  0  0  0  0  0  0  0
   -7.5000    5.1962    0.0000 C   0  0  0  0  0  0  0  0  0  0  0  0
   -8.2500    6.4952    0.0000 O   0  0  0  0  0  0  0  0  0  0  0  0
   -8.2500    1.2990    0.0000 C   0  0  0  0  0  0  0  0  0  0  0  0
   -7.5000    0.0000    0.0000 C   0  0  0  0  0  0  0  0  0  0  0  0
   -0.7500   -3.8971    0.0000 C   0  0  0  0  0  0  0  0  0  0  0  0
   -1.5000   -5.1962    0.0000 C   0  0  0  0  0  0  0  0  0  0  0  0
  1  2  1  0
  2  3  2  0
  2  4  1  0
  4  5  2  0
  5  6  1  0
  6  7  2  0
  7  8  1  0
  8  9  1  0
  9 10  2  0
 10 11  1  0
 11 12  2  0
 12 13  1  0
 13 14  2  0
 14 15  1  0
 15 16  1  0
 16 17  1  0
 17 18  1  0
 18 19  1  0
 19 20  1  0
 20 21  1  0
 21 22  1  0
 22 23  1  0
 23 24  1  0
 24 25  1  0
 22 26  1  0
 26 27  1  0
 15 28  1  0
 28 29  2  0
 29  4  1  0
 28  7  1  0
 14  9  1  0
 27 19  1  0
M  END
$$$$
1537268
     RDKit          2D

 45 46  0  0  0  0  0  0  0  0999 V2000
   -3.0000   -7.7942    0.0000 C   0  0  0  0  0  0  0  0  0  0  0  0
   -1.5000   -7.7942    0.0000 C   0  0  0  0  0  0  0  0  0  0  0  0
   -0.7500   -9.0933    0.0000 O   0  0  0  0  0  0  0  0  0  0  0  0
   -0.7500   -6.4952    0.0000 C   0  0  0  0  0  0  0  0  0  0  0  0
    0.7500   -6.4952    0.0000 C   0  0  0  0  0  0  0  0  0  0  0  0
    1.5000   -5.1962    0.0000 C   0  0  0  0  0  0  0  0  0  0  0  0
    0.7500   -3.8971    0.0000 C   0  0  0  0  0  0  0  0  0  0  0  0
    1.5000   -2.5981    0.0000 S   0  0  0  0  0  0  0  0  0  0  0  0
    0.7500   -1.2990    0.0000 C   0  0  0  0  0  0  0  0  0  0  0  0
    1.5000    0.0000    0.0000 C   0  0  0  0  0  0  0  0  0  0  0  0
    0.7500    1.2990    0.0000 C   0  0  0  0  0  0  0  0  0  0  0  0
   -0.7500    1.2990    0.0000 C   0  0  0  0  0  0  0  0  0  0  0  0
   -1.5000    0.0000    0.0000 C   0  0  0  0  0  0  0  0  0  0  0  0
   -0.7500   -1.2990    0.0000 C   0  0  0  0  0  0  0  0  0  0  0  0
   -1.5000   -2.5981    0.0000 N   0  0  0  0  0  0  0  0  0  0  0  0
   -3.0000   -2.5981    0.0000 C   0  0  0  0  0  0  0  0  0  0  0  0
   -3.7500   -1.2990    0.0000 C   0  0  0  0  0  0  0  0  0  0  0  0
   -5.2500   -1.2990    0.0000 C   0  0  0  0  0  0  0  0  0  0  0  0
   -6.0000    0.0000    0.0000 N   0  0  0  0  0  0  0  0  0  0  0  0
   -5.2500    1.2990    0.0000 C   0  0  0  0  0  0  0  0  0  0  0  0
   -6.0000    2.5981    0.0000 C   0  0  0  0  0  0  0  0  0  0  0  0
   -7.5000    2.5981    0.0000 N   0  0  0  0  0  0  0  0  0  0  0  0
   -8.2500    3.8971    0.0000 C   0  0  0  0  0  0  0  0  0  0  0  0
   -7.5000    5.1962    0.0000 C   0  0  0  0  0  0  0  0  0  0  0  0
   -8.2500    6.4952    0.0000 O   0  0  0  0  0  0  0  0  0  0  0  0
   -8.2500    1.2990    0.0000 C   0  0  0  0  0  0  0  0  0  0  0  0
   -7.5000    0.0000    0.0000 C   0  0  0  0  0  0  0  0  0  0  0  0
   -0.7500   -3.8971    0.0000 C   0  0  0  0  0  0  0  0  0  0  0  0
   -1.5000   -5.1962    0.0000 C   0  0  0  0  0  0  0  0  0  0  0  0
    2.5000   -1.2990    0.0000 O   0  0  0  0  0  0  0  0  0  0  0  0
    4.0000   -1.2990    0.0000 C   0  0  0  0  0  0  0  0  0  0  0  0
    4.7500   -2.5981    0.0000 O   0  0  0  0  0  0  0  0  0  0  0  0
    4.7500    0.0000    0.0000 C   0  0  0  0  0  0  0  0  0  0  0  0
    6.2500    0.0000    0.0000 C   0  0  0  0  0  0  0  0  0  0  0  0
    7.0000   -1.2990    0.0000 C   0  0  0  0  0  0  0  0  0  0  0  0
    6.2500   -2.5981    0.0000 O   0  0  0  0  0  0  0  0  0  0  0  0
    8.5000   -1.2990    0.0000 O   0  0  0  0  0  0  0  0  0  0  0  0
   -2.2500    8.7942    0.0000 O   0  0  0  0  0  0  0  0  0  0  0  0
   -0.7500    8.7942    0.0000 C   0  0  0  0  0  0  0  0  0  0  0  0
    0.0000    7.4952    0.0000 O   0  0  0  0  0  0  0  0  0  0  0  0
    0.0000   10.0933    0.0000 C   0  0  0  0  0  0  0  0  0  0  0  0
    1.5000   10.0933    0.0000 C   0  0  0  0  0  0  0  0  0  0  0  0
    2.2500    8.7942    0.0000 C   0  0  0  0  0  0  0  0  0  0  0  0
    1.5000    7.4952    0.0000 O   0  0  0  0  0  0  0  0  0  0  0  0
    3.7500    8.7942    0.0000 O   0  0  0  0  0  0  0  0  0  0  0  0
  1  2  1  0
  2  3  2  0
  2  4  1  0
  4  5  2  0
  5  6  1  0
  6  7  2  0
  7  8  1  0
  8  9  1  0
  9 10  2  0
 10 11  1  0
 11 12  2  0
 12 13  1  0
 13 14  2  0
 14 15  1  0
 15 16  1  0
 16 17  1  0
 17 18  1  0
 18 19  1  0
 19 20  1  0
 20 21  1  0
 21 22  1  0
 22 23  1  0
 23 24  1  0
 24 25  1  0
 22 26  1  0
 26 27  1  0
 15 28  1  0
 28 29  2  0
 30 31  1  0
 31 32  2  0
 31 33  1  0
 33 34  2  0
 34 35  1  0
 35 36  2  0
 35 37  1  0
 38 39  1  0
 39 40  2  0
 39 41  1  0
 41 42  2  0
 42 43  1  0
 43 44  2  0
 43 45  1  0
 29  4  1  0
 28  7  1  0
 14  9  1  0
 27 19  1  0
M  END
$$$$
394165
     RDKit          2D

 23 25  0  0  0  0  0  0  0  0999 V2000
    0.7500   -9.0933    0.0000 C   0  0  0  0  0  0  0  0  0  0  0  0
    1.5000   -7.7942    0.0000 C   0  0  0  0  0  0  0  0  0  0  0  0
    3.0000   -7.7942    0.0000 O   0  0  0  0  0  0  0  0  0  0  0  0
    0.7500   -6.4952    0.0000 C   0  0  0  0  0  0  0  0  0  0  0  0
    1.5000   -5.1962    0.0000 C   0  0  0  0  0  0  0  0  0  0  0  0
    0.7500   -3.8971    0.0000 C   0  0  0  0  0  0  0  0  0  0  0  0
    1.5000   -2.5981    0.0000 C   0  0  0  0  0  0  0  0  0  0  0  0
    3.0000   -2.5981    0.0000 O   0  0  0  0  0  0  0  0  0  0  0  0
    0.7500   -1.2990    0.0000 C   0  0  0  0  0  0  0  0  0  0  0  0
    1.5000    0.0000    0.0000 C   0  0  0  0  0  0  0  0  0  0  0  0
    0.7500    1.2990    0.0000 C   0  0  0  0  0  0  0  0  0  0  0  0
   -0.7500    1.2990    0.0000 C   0  0  0  0  0  0  0  0  0  0  0  0
   -1.5000    0.0000    0.0000 C   0  0  0  0  0  0  0  0  0  0  0  0
   -0.7500   -1.2990    0.0000 C   0  0  0  0  0  0  0  0  0  0  0  0
   -1.5000   -2.5981    0.0000 O   0  0  0  0  0  0  0  0  0  0  0  0
   -0.7500   -3.8971    0.0000 C   0  0  0  0  0  0  0  0  0  0  0  0
   -1.5000   -5.1962    0.0000 O   0  0  0  0  0  0  0  0  0  0  0  0
    3.0000   -5.1962    0.0000 C   0  0  0  0  0  0  0  0  0  0  0  0
    3.7500   -6.4952    0.0000 C   0  0  0  0  0  0  0  0  0  0  0  0
    5.2500   -6.4952    0.0000 C   0  0  0  0  0  0  0  0  0  0  0  0
    6.0000   -5.1962    0.0000 C   0  0  0  0  0  0  0  0  0  0  0  0
    5.2500   -3.8971    0.0000 C   0  0  0  0  0  0  0  0  0  0  0  0
    3.7500   -3.8971    0.0000 C   0  0  0  0  0  0  0  0  0  0  0  0
  1  2  1  0
  2  3  2  0
  2  4  1  0
  4  5  1  0
  5  6  1  0
  6  7  2  0
  7  8  1  0
  7  9  1  0
  9 10  2  0
 10 11  1  0
 11 12  2  0
 12 13  1  0
 13 14  2  0
 14 15  1  0
 15 16  1  0
 16 17  2  0
  5 18  1  0
 18 19  2  0
 19 20  1  0
 20 21  2  0
 21 22  1  0
 22 23  2  0
 16  6  1  0
 14  9  1  0
 23 18  1  0
M  END
$$$$
674861
     RDKit          2D

 21 22  0  0  0  0  0  0  0  0999 V2000
   -0.0000   -5.1962    0.0000 C   0  0  0  0  0  0  0  0  0  0  0  0
    1.5000   -5.1962    0.0000 C   0  0  0  0  0  0  0  0  0  0  0  0
    2.2500   -6.4952    0.0000 O   0  0  0  0  0  0  0  0  0  0  0  0
    2.2500   -3.8971    0.0000 N   0  0  0  0  0  0  0  0  0  0  0  0
    3.7500   -3.8971    0.0000 C   0  0  0  0  0  0  0  0  0  0  0  0
    4.6317   -2.6836    0.0000 O   0  0  0  0  0  0  0  0  0  0  0  0
    6.0583   -3.1471    0.0000 N   0  0  0  0  0  0  0  0  0  0  0  0
    6.0583   -4.6471    0.0000 C   0  0  0  0  0  0  0  0  0  0  0  0
    7.2718   -5.5288    0.0000 C   0  0  0  0  0  0  0  0  0  0  0  0
    4.6317   -5.1106    0.0000 C   0  0  0  0  0  0  0  0  0  0  0  0
    4.1682   -6.5372    0.0000 C   0  0  0  0  0  0  0  0  0  0  0  0
    1.5000   -2.5981    0.0000 S   0  0  0  0  0  0  0  0  0  0  0  0
    0.2010   -3.3481    0.0000 O   0  0  0  0  0  0  0  0  0  0  0  0
    2.7990   -1.8481    0.0000 O   0  0  0  0  0  0  0  0  0  0  0  0
    0.7500   -1.2990    0.0000 C   0  0  0  0  0  0  0  0  0  0  0  0
    1.5000    0.0000    0.0000 C   0  0  0  0  0  0  0  0  0  0  0  0
    0.7500    1.2990    0.0000 C   0  0  0  0  0  0  0  0  0  0  0  0
   -0.7500    1.2990    0.0000 C   0  0  0  0  0  0  0  0  0  0  0  0
   -1.5000    2.5981    0.0000 N   0  0  0  0  0  0  0  0  0  0  0  0
   -1.5000    0.0000    0.0000 C   0  0  0  0  0  0  0  0  0  0  0  0
   -0.7500   -1.2990    0.0000 C   0  0  0  0  0  0  0  0  0  0  0  0
  1  2  1  0
  2  3  2  0
  2  4  1  0
  4  5  1  0
  5  6  1  0
  6  7  1  0
  7  8  2  0
  8  9  1  0
  8 10  1  0
 10 11  1  0
  4 12  1  0
 12 13  2  0
 12 14  2  0
 12 15  1  0
 15 16  2  0
 16 17  1  0
 17 18  2  0
 18 19  1  0
 18 20  1  0
 20 21  2  0
 10  5  2  0
 21 15  1  0
M  END
$$$$
674406
     RDKit          2D

 34 34  0  0  0  0  0  0  0  0999 V2000
    5.2500    1.2990    0.0000 C   0  0  0  0  0  0  0  0  0  0  0  0
    3.7500    1.2990    0.0000 C   0  0  0  0  0  0  0  0  0  0  0  0
    3.0000    2.5981    0.0000 O   0  0  0  0  0  0  0  0  0  0  0  0
    3.0000    0.0000    0.0000 N   0  0  0  0  0  0  0  0  0  0  0  0
    3.7500   -1.2990    0.0000 C   0  0  0  0  0  0  0  0  0  0  0  0
    5.2500   -1.2990    0.0000 C   0  0  0  0  0  0  0  0  0  0  0  0
    6.0000    0.0000    0.0000 O   0  0  0  0  0  0  0  0  0  0  0  0
    6.0000   -2.5981    0.0000 C   0  0  0  0  0  0  0  0  0  0  0  0
    7.5000   -2.5981    0.0000 O   0  0  0  0  0  0  0  0  0  0  0  0
    1.5000    0.0000    0.0000 C   0  0  0  0  0  0  0  0  0  0  0  0
    0.7500   -1.2990    0.0000 C   0  0  0  0  0  0  0  0  0  0  0  0
    1.5000   -2.5981    0.0000 I   0  0  0  0  0  0  0  0  0  0  0  0
   -0.7500   -1.2990    0.0000 C   0  0  0  0  0  0  0  0  0  0  0  0
   -1.5000   -2.5981    0.0000 C   0  0  0  0  0  0  0  0  0  0  0  0
   -0.7500   -3.8971    0.0000 O   0  0  0  0  0  0  0  0  0  0  0  0
   -3.0000   -2.5981    0.0000 N   0  0  0  0  0  0  0  0  0  0  0  0
   -3.7500   -3.8971    0.0000 C   0  0  0  0  0  0  0  0  0  0  0  0
   -5.2500   -3.8971    0.0000 C   0  0  0  0  0  0  0  0  0  0  0  0
   -6.0000   -2.5981    0.0000 O   0  0  0  0  0  0  0  0  0  0  0  0
   -6.0000   -5.1962    0.0000 C   0  0  0  0  0  0  0  0  0  0  0  0
   -7.5000   -5.1962    0.0000 O   0  0  0  0  0  0  0  0  0  0  0  0
   -1.5000    0.0000    0.0000 C   0  0  0  0  0  0  0  0  0  0  0  0
   -3.0000    0.0000    0.0000 I   0  0  0  0  0  0  0  0  0  0  0  0
   -0.7500    1.2990    0.0000 C   0  0  0  0  0  0  0  0  0  0  0  0
   -1.5000    2.5981    0.0000 C   0  0  0  0  0  0  0  0  0  0  0  0
   -3.0000    2.5981    0.0000 O   0  0  0  0  0  0  0  0  0  0  0  0
   -0.7500    3.8971    0.0000 N   0  0  0  0  0  0  0  0  0  0  0  0
   -1.5000    5.1962    0.0000 C   0  0  0  0  0  0  0  0  0  0  0  0
   -0.7500    6.4952    0.0000 C   0  0  0  0  0  0  0  0  0  0  0  0
    0.7500    6.4952    0.0000 O   0  0  0  0  0  0  0  0  0  0  0  0
   -1.5000    7.7942    0.0000 C   0  0  0  0  0  0  0  0  0  0  0  0
   -0.7500    9.0933    0.0000 O   0  0  0  0  0  0  0  0  0  0  0  0
    0.7500    1.2990    0.0000 C   0  0  0  0  0  0  0  0  0  0  0  0
    1.5000    2.5981    0.0000 I   0  0  0  0  0  0  0  0  0  0  0  0
  1  2  1  0
  2  3  2  0
  2  4  1  0
  4  5  1  0
  5  6  1  0
  6  7  1  0
  6  8  1  0
  8  9  1  0
  4 10  1  0
 10 11  2  0
 11 12  1  0
 11 13  1  0
 13 14  1  0
 14 15  2  0
 14 16  1  0
 16 17  1  0
 17 18  1  0
 18 19  1  0
 18 20  1  0
 20 21  1  0
 13 22  2  0
 22 23  1  0
 22 24  1  0
 24 25  1  0
 25 26  2  0
 25 27  1  0
 27 28  1  0
 28 29  1  0
 29 30  1  0
 29 31  1  0
 31 32  1  0
 24 33  2  0
 33 34  1  0
 33 10  1  0
M  END
$$$$
72036
     RDKit          2D

 36 40  0  0  0  0  0  0  0  0999 V2000
    3.7500   -1.2990    0.0000 C   0  0  0  0  0  0  0  0  0  0  0  0
    3.0000    0.0000    0.0000 C   0  0  0  0  0  0  0  0  0  0  0  0
    3.7500    1.2990    0.0000 O   0  0  0  0  0  0  0  0  0  0  0  0
    1.5000    0.0000    0.0000 N   0  0  0  0  0  0  0  0  0  0  0  0
    0.7500   -1.2990    0.0000 C   0  0  0  0  0  0  0  0  0  0  0  0
   -0.7500   -1.2990    0.0000 C   0  0  0  0  0  0  0  0  0  0  0  0
   -1.5000    0.0000    0.0000 N   0  0  0  0  0  0  0  0  0  0  0  0
   -0.7500    1.2990    0.0000 C   0  0  0  0  0  0  0  0  0  0  0  0
    0.7500    1.2990    0.0000 C   0  0  0  0  0  0  0  0  0  0  0  0
   -3.0000    0.0000    0.0000 C   0  0  0  0  0  0  0  0  0  0  0  0
   -3.7500    1.2990    0.0000 C   0  0  0  0  0  0  0  0  0  0  0  0
   -5.2500    1.2990    0.0000 C   0  0  0  0  0  0  0  0  0  0  0  0
   -6.0000    0.0000    0.0000 C   0  0  0  0  0  0  0  0  0  0  0  0
   -7.5000    0.0000    0.0000 O   0  0  0  0  0  0  0  0  0  0  0  0
   -8.2500    1.2990    0.0000 C   0  0  0  0  0  0  0  0  0  0  0  0
   -9.7500    1.2990    0.0000 C   0  0  0  0  0  0  0  0  0  0  0  0
  -10.6317    0.0855    0.0000 C   0  0  0  0  0  0  0  0  0  0  0  0
  -12.0583    0.5490    0.0000 O   0  0  0  0  0  0  0  0  0  0  0  0
  -12.0583    2.0490    0.0000 C   0  0  0  0  0  0  0  0  0  0  0  0
  -12.3701    3.5163    0.0000 C   0  0  0  0  0  0  0  0  0  0  0  0
  -11.2554    4.5200    0.0000 N   0  0  0  0  0  0  0  0  0  0  0  0
  -11.4122    6.0117    0.0000 C   0  0  0  0  0  0  0  0  0  0  0  0
  -10.0419    6.6218    0.0000 C   0  0  0  0  0  0  0  0  0  0  0  0
   -9.0382    5.5071    0.0000 N   0  0  0  0  0  0  0  0  0  0  0  0
   -9.7882    4.2081    0.0000 C   0  0  0  0  0  0  0  0  0  0  0  0
  -10.6317    2.5126    0.0000 O   0  0  0  0  0  0  0  0  0  0  0  0
  -13.5500    1.8922    0.0000 C   0  0  0  0  0  0  0  0  0  0  0  0
  -14.4317    3.1058    0.0000 C   0  0  0  0  0  0  0  0  0  0  0  0
  -15.9235    2.9490    0.0000 C   0  0  0  0  0  0  0  0  0  0  0  0
  -16.5336    1.5787    0.0000 C   0  0  0  0  0  0  0  0  0  0  0  0
  -18.0254    1.4219    0.0000 Cl  0  0  0  0  0  0  0  0  0  0  0  0
  -15.6519    0.3651    0.0000 C   0  0  0  0  0  0  0  0  0  0  0  0
  -14.1602    0.5219    0.0000 C   0  0  0  0  0  0  0  0  0  0  0  0
  -13.2785   -0.6916    0.0000 Cl  0  0  0  0  0  0  0  0  0  0  0  0
   -5.2500   -1.2990    0.0000 C   0  0  0  0  0  0  0  0  0  0  0  0
   -3.7500   -1.2990    0.0000 C   0  0  0  0  0  0  0  0  0  0  0  0
  1  2  1  0
  2  3  2  0
  2  4  1  0
  4  5  1  0
  5  6  1  0
  6  7  1  0
  7  8  1  0
  8  9  1  0
  7 10  1  0
 10 11  2  0
 11 12  1  0
 12 13  2  0
 13 14  1  0
 14 15  1  0
 16 15  1  6
 16 17  1  0
 17 18  1  0
 18 19  1  0
 19 20  1  6
 20 21  1  0
 21 22  1  0
 22 23  2  0
 23 24  1  0
 24 25  2  0
 19 26  1  0
 19 27  1  0
 27 28  2  0
 28 29  1  0
 29 30  2  0
 30 31  1  0
 30 32  1  0
 32 33  2  0
 33 34  1  0
 13 35  1  0
 35 36  2  0
  9  4  1  0
 36 10  1  0
 26 16  1  0
 25 21  1  0
 33 27  1  0
M  END
$$$$
675171
     RDKit          2D

 20 20  0  0  0  0  0  0  0  0999 V2000
    5.2500   -1.2990    0.0000 C   0  0  0  0  0  0  0  0  0  0  0  0
    3.7500   -1.2990    0.0000 C   0  0  0  0  0  0  0  0  0  0  0  0
    3.0000   -2.5981    0.0000 O   0  0  0  0  0  0  0  0  0  0  0  0
    3.0000    0.0000    0.0000 N   0  0  0  0  0  0  0  0  0  0  0  0
    1.5000    0.0000    0.0000 C   0  0  0  0  0  0  0  0  0  0  0  0
    0.7500   -1.2990    0.0000 C   0  0  0  0  0  0  0  0  0  0  0  0
    1.5000   -2.5981    0.0000 I   0  0  0  0  0  0  0  0  0  0  0  0
   -0.7500   -1.2990    0.0000 C   0  0  0  0  0  0  0  0  0  0  0  0
   -1.5000   -2.5981    0.0000 N   0  0  0  0  0  0  0  0  0  0  0  0
   -3.0000   -2.5981    0.0000 C   0  0  0  0  0  0  0  0  0  0  0  0
   -3.7500   -1.2990    0.0000 O   0  0  0  0  0  0  0  0  0  0  0  0
   -3.7500   -3.8971    0.0000 C   0  0  0  0  0  0  0  0  0  0  0  0
   -1.5000    0.0000    0.0000 C   0  0  0  0  0  0  0  0  0  0  0  0
   -3.0000    0.0000    0.0000 I   0  0  0  0  0  0  0  0  0  0  0  0
   -0.7500    1.2990    0.0000 C   0  0  0  0  0  0  0  0  0  0  0  0
   -1.5000    2.5981    0.0000 C   0  0  0  0  0  0  0  0  0  0  0  0
   -3.0000    2.5981    0.0000 O   0  0  0  0  0  0  0  0  0  0  0  0
   -0.7500    3.8971    0.0000 O   0  0  0  0  0  0  0  0  0  0  0  0
    0.7500    1.2990    0.0000 C   0  0  0  0  0  0  0  0  0  0  0  0
    1.5000    2.5981    0.0000 I   0  0  0  0  0  0  0  0  0  0  0  0
  1  2  1  0
  2  3  2  0
  2  4  1  0
  4  5  1  0
  5  6  2  0
  6  7  1  0
  6  8  1  0
  8  9  1  0
  9 10  1  0
 10 11  2  0
 10 12  1  0
  8 13  2  0
 13 14  1  0
 13 15  1  0
 15 16  1  0
 16 17  2  0
 16 18  1  0
 15 19  2  0
 19 20  1  0
 19  5  1  0
M  END
$$$$
16450
     RDKit          2D

 11 11  0  0  0  0  0  0  0  0999 V2000
    5.2500   -1.2990    0.0000 C   0  0  0  0  0  0  0  0  0  0  0  0
    3.7500   -1.2990    0.0000 C   0  0  0  0  0  0  0  0  0  0  0  0
    3.0000   -2.5981    0.0000 O   0  0  0  0  0  0  0  0  0  0  0  0
    3.0000    0.0000    0.0000 N   0  0  0  0  0  0  0  0  0  0  0  0
    1.5000    0.0000    0.0000 C   0  0  0  0  0  0  0  0  0  0  0  0
    0.7500   -1.2990    0.0000 C   0  0  0  0  0  0  0  0  0  0  0  0
   -0.7500   -1.2990    0.0000 C   0  0  0  0  0  0  0  0  0  0  0  0
   -1.5000    0.0000    0.0000 C   0  0  0  0  0  0  0  0  0  0  0  0
   -3.0000    0.0000    0.0000 O   0  0  0  0  0  0  0  0  0  0  0  0
   -0.7500    1.2990    0.0000 C   0  0  0  0  0  0  0  0  0  0  0  0
    0.7500    1.2990    0.0000 C   0  0  0  0  0  0  0  0  0  0  0  0
  1  2  1  0
  2  3  2  0
  2  4  1  0
  4  5  1  0
  5  6  2  0
  6  7  1  0
  7  8  2  0
  8  9  1  0
  8 10  1  0
 10 11  2  0
 11  5  1  0
M  END
$$$$
1125
     RDKit          2D

 13 13  0  0  0  0  0  0  0  0999 V2000
    5.0260   -1.2990    0.0000 C   0  0  0  0  0  0  0  0  0  0  0  0
    3.5260   -1.2990    0.0000 C   0  0  0  0  0  0  0  0  0  0  0  0
    2.7760   -2.5981    0.0000 O   0  0  0  0  0  0  0  0  0  0  0  0
    2.7760    0.0000    0.0000 N   0  0  0  0  0  0  0  0  0  0  0  0
    1.2760    0.0000    0.0000 C   0  0  0  0  0  0  0  0  0  0  0  0
    0.3943    1.2135    0.0000 N   0  0  0  0  0  0  0  0  0  0  0  0
   -1.0323    0.7500    0.0000 N   0  0  0  0  0  0  0  0  0  0  0  0
   -1.0323   -0.7500    0.0000 C   0  0  0  0  0  0  0  0  0  0  0  0
    0.3943   -1.2135    0.0000 S   0  0  0  0  0  0  0  0  0  0  0  0
   -2.2458   -1.6317    0.0000 S   0  0  0  0  0  0  0  0  0  0  0  0
   -3.1275   -0.4182    0.0000 O   0  0  0  0  0  0  0  0  0  0  0  0
   -1.3641   -2.8452    0.0000 O   0  0  0  0  0  0  0  0  0  0  0  0
   -3.4593   -2.5134    0.0000 N   0  0  0  0  0  0  0  0  0  0  0  0
  1  2  1  0
  2  3  2  0
  2  4  1  0
  4  5  1  0
  5  6  2  0
  6  7  1  0
  7  8  2  0
  8  9  1  0
  8 10  1  0
 10 11  2  0
 10 12  2  0
 10 13  1  0
  9  5  1  0
M  END
$$$$
675244
     RDKit          2D

 11 10  0  0  0  0  0  0  0  0999 V2000
    0.0000    0.0000    0.0000 C   0  0  0  0  0  0  0  0  0  0  0  0
    1.2990    0.7500    0.0000 C   0  0  0  0  0  0  0  0  0  0  0  0
    1.2990    2.2500    0.0000 O   0  0  0  0  0  0  0  0  0  0  0  0
    2.5981   -0.0000    0.0000 N   0  0  0  0  0  0  0  0  0  0  0  0
    3.8971    0.7500    0.0000 C   0  0  0  0  0  0  0  0  0  0  0  0
    5.1962   -0.0000    0.0000 C   0  0  0  0  0  0  0  0  0  0  0  0
    6.4952    0.7500    0.0000 C   0  0  0  0  0  0  0  0  0  0  0  0
    7.7942   -0.0000    0.0000 S   0  0  0  0  0  0  0  0  0  0  0  0
    8.5442    1.2990    0.0000 O   0  0  0  0  0  0  0  0  0  0  0  0
    7.0442   -1.2990    0.0000 O   0  0  0  0  0  0  0  0  0  0  0  0
    9.0933   -0.7500    0.0000 O   0  0  0  0  0  0  0  0  0  0  0  0
  1  2  1  0
  2  3  2  0
  2  4  1  0
  4  5  1  0
  5  6  1  0
  6  7  1  0
  7  8  1  0
  8  9  2  0
  8 10  2  0
  8 11  1  0
M  END
$$$$
26280
     RDKit          2D

 24 26  0  0  0  0  0  0  0  0999 V2000
    6.3579   -8.4259    0.0000 C   0  0  0  0  0  0  0  0  0  0  0  0
    6.2011   -6.9341    0.0000 C   0  0  0  0  0  0  0  0  0  0  0  0
    7.4146   -6.0524    0.0000 O   0  0  0  0  0  0  0  0  0  0  0  0
    4.8308   -6.3240    0.0000 N   0  0  0  0  0  0  0  0  0  0  0  0
    4.6740   -4.8322    0.0000 C   0  0  0  0  0  0  0  0  0  0  0  0
    3.3037   -4.2221    0.0000 C   0  0  0  0  0  0  0  0  0  0  0  0
    2.9918   -2.7549    0.0000 C   0  0  0  0  0  0  0  0  0  0  0  0
    1.5000   -2.5981    0.0000 N   0  0  0  0  0  0  0  0  0  0  0  0
    0.8899   -3.9684    0.0000 C   0  0  0  0  0  0  0  0  0  0  0  0
   -0.5773   -4.2803    0.0000 O   0  0  0  0  0  0  0  0  0  0  0  0
    2.0046   -4.9721    0.0000 O   0  0  0  0  0  0  0  0  0  0  0  0
    0.7500   -1.2990    0.0000 C   0  0  0  0  0  0  0  0  0  0  0  0
    1.5000    0.0000    0.0000 C   0  0  0  0  0  0  0  0  0  0  0  0
    0.7500    1.2990    0.0000 C   0  0  0  0  0  0  0  0  0  0  0  0
   -0.7500    1.2990    0.0000 C   0  0  0  0  0  0  0  0  0  0  0  0
   -1.5000    2.5981    0.0000 N   0  0  0  0  0  0  0  0  0  0  0  0
   -0.7500    3.8971    0.0000 C   0  0  0  0  0  0  0  0  0  0  0  0
   -1.5000    5.1962    0.0000 C   0  0  0  0  0  0  0  0  0  0  0  0
   -3.0000    5.1962    0.0000 O   0  0  0  0  0  0  0  0  0  0  0  0
   -3.7500    3.8971    0.0000 C   0  0  0  0  0  0  0  0  0  0  0  0
   -3.0000    2.5981    0.0000 C   0  0  0  0  0  0  0  0  0  0  0  0
   -1.5000    0.0000    0.0000 C   0  0  0  0  0  0  0  0  0  0  0  0
   -3.0000    0.0000    0.0000 F   0  0  0  0  0  0  0  0  0  0  0  0
   -0.7500   -1.2990    0.0000 C   0  0  0  0  0  0  0  0  0  0  0  0
  1  2  1  0
  2  3  2  0
  2  4  1  0
  4  5  1  0
  6  5  1  6
  6  7  1  0
  7  8  1  0
  8  9  1  0
  9 10  2  0
  9 11  1  0
  8 12  1  0
 12 13  2  0
 13 14  1  0
 14 15  2  0
 15 16  1  0
 16 17  1  0
 17 18  1  0
 18 19  1  0
 19 20  1  0
 20 21  1  0
 15 22  1  0
 22 23  1  0
 22 24  2  0
 11  6  1  0
 24 12  1  0
 21 16  1  0
M  END
$$$$
37820
     RDKit          2D

  5  4  0  0  0  0  0  0  0  0999 V2000
    0.0000    0.0000    0.0000 C   0  0  0  0  0  0  0  0  0  0  0  0
    1.2990    0.7500    0.0000 C   0  0  0  0  0  0  0  0  0  0  0  0
    1.2990    2.2500    0.0000 O   0  0  0  0  0  0  0  0  0  0  0  0
    2.5981   -0.0000    0.0000 N   0  0  0  0  0  0  0  0  0  0  0  0
    3.8971    0.7500    0.0000 O   0  0  0  0  0  0  0  0  0  0  0  0
  1  2  1  0
  2  3  2  0
  2  4  1  0
  4  5  1  0
M  END
$$$$
20881
     RDKit          2D

 10  9  0  0  0  0  0  0  0  0999 V2000
    0.0000    0.0000    0.0000 C   0  0  0  0  0  0  0  0  0  0  0  0
    1.2990    0.7500    0.0000 C   0  0  0  0  0  0  0  0  0  0  0  0
    1.2990    2.2500    0.0000 O   0  0  0  0  0  0  0  0  0  0  0  0
    2.5981   -0.0000    0.0000 N   0  0  0  0  0  0  0  0  0  0  0  0
    3.8971    0.7500    0.0000 C   0  0  0  0  0  0  0  0  0  0  0  0
    3.8971    2.2500    0.0000 C   0  0  0  0  0  0  0  0  0  0  0  0
    5.1962    3.0000    0.0000 S   0  0  0  0  0  0  0  0  0  0  0  0
    5.1962   -0.0000    0.0000 C   0  0  0  0  0  0  0  0  0  0  0  0
    5.1962   -1.5000    0.0000 O   0  0  0  0  0  0  0  0  0  0  0  0
    6.4952    0.7500    0.0000 O   0  0  0  0  0  0  0  0  0  0  0  0
  1  2  1  0
  2  3  2  0
  2  4  1  0
  4  5  1  0
  5  6  1  1
  6  7  1  0
  5  8  1  0
  8  9  2  0
  8 10  1  0
M  END
$$$$
1378885
     RDKit          2D

 39 42  0  0  0  0  0  0  0  0999 V2000
    0.0000    3.5981    0.0000 C   0  0  0  0  0  0  0  0  0  0  0  0
    1.2990    4.3481    0.0000 C   0  0  0  0  0  0  0  0  0  0  0  0
    1.2990    5.8481    0.0000 O   0  0  0  0  0  0  0  0  0  0  0  0
    2.5981    3.5981    0.0000 O   0  0  0  0  0  0  0  0  0  0  0  0
   -2.6401   -3.1891    0.0000 C   0  0  0  0  0  0  0  0  0  0  0  0
   -1.2135   -2.7256    0.0000 C   0  0  0  0  0  0  0  0  0  0  0  0
   -0.0000   -3.6073    0.0000 C   0  0  0  0  0  0  0  0  0  0  0  0
   -0.0000   -5.1073    0.0000 C   0  0  0  0  0  0  0  0  0  0  0  0
   -1.2990   -5.8573    0.0000 C   0  0  0  0  0  0  0  0  0  0  0  0
   -1.2990   -7.3573    0.0000 C   0  0  0  0  0  0  0  0  0  0  0  0
   -0.0000   -8.1073    0.0000 C   0  0  0  0  0  0  0  0  0  0  0  0
   -0.0000   -9.6073    0.0000 O   0  0  0  0  0  0  0  0  0  0  0  0
    1.2990   -7.3573    0.0000 C   0  0  0  0  0  0  0  0  0  0  0  0
    1.2990   -5.8573    0.0000 C   0  0  0  0  0  0  0  0  0  0  0  0
    1.2135   -2.7256    0.0000 N   0  0  0  0  0  0  0  0  0  0  0  0
    2.6401   -3.1891    0.0000 C   0  0  0  0  0  0  0  0  0  0  0  0
    3.7548   -2.1855    0.0000 C   0  0  0  0  0  0  0  0  0  0  0  0
    5.1814   -2.6490    0.0000 C   0  0  0  0  0  0  0  0  0  0  0  0
    6.2961   -1.6453    0.0000 C   0  0  0  0  0  0  0  0  0  0  0  0
    5.9843   -0.1781    0.0000 C   0  0  0  0  0  0  0  0  0  0  0  0
    7.0990    0.8256    0.0000 O   0  0  0  0  0  0  0  0  0  0  0  0
    8.5256    0.3621    0.0000 C   0  0  0  0  0  0  0  0  0  0  0  0
    9.6403    1.3658    0.0000 C   0  0  0  0  0  0  0  0  0  0  0  0
   11.0669    0.9023    0.0000 N   0  0  0  0  0  0  0  0  0  0  0  0
   12.1035    1.9865    0.0000 C   0  0  0  0  0  0  0  0  0  0  0  0
   13.5974    1.8520    0.0000 C   0  0  0  0  0  0  0  0  0  0  0  0
   14.4238    0.6002    0.0000 C   0  0  0  0  0  0  0  0  0  0  0  0
   13.9602   -0.8264    0.0000 C   0  0  0  0  0  0  0  0  0  0  0  0
   12.5559   -1.3535    0.0000 C   0  0  0  0  0  0  0  0  0  0  0  0
   11.2682   -0.5841    0.0000 C   0  0  0  0  0  0  0  0  0  0  0  0
    4.5577    0.2855    0.0000 C   0  0  0  0  0  0  0  0  0  0  0  0
    3.4430   -0.7182    0.0000 C   0  0  0  0  0  0  0  0  0  0  0  0
    0.7500   -1.2990    0.0000 C   0  0  0  0  0  0  0  0  0  0  0  0
    1.5000    0.0000    0.0000 C   0  0  0  0  0  0  0  0  0  0  0  0
    0.7500    1.2990    0.0000 C   0  0  0  0  0  0  0  0  0  0  0  0
   -0.7500    1.2990    0.0000 C   0  0  0  0  0  0  0  0  0  0  0  0
   -1.5000    2.5981    0.0000 O   0  0  0  0  0  0  0  0  0  0  0  0
   -1.5000    0.0000    0.0000 C   0  0  0  0  0  0  0  0  0  0  0  0
   -0.7500   -1.2990    0.0000 C   0  0  0  0  0  0  0  0  0  0  0  0
  1  2  1  0
  2  3  2  0
  2  4  1  0
  5  6  1  0
  6  7  2  0
  7  8  1  0
  8  9  2  0
  9 10  1  0
 10 11  2  0
 11 12  1  0
 11 13  1  0
 13 14  2  0
  7 15  1  0
 15 16  1  0
 16 17  1  0
 17 18  2  0
 18 19  1  0
 19 20  2  0
 20 21  1  0
 21 22  1  0
 22 23  1  0
 23 24  1  0
 24 25  1  0
 25 26  1  0
 26 27  1  0
 27 28  1  0
 28 29  1  0
 29 30  1  0
 20 31  1  0
 31 32  2  0
 15 33  1  0
 33 34  2  0
 34 35  1  0
 35 36  2  0
 36 37  1  0
 36 38  1  0
 38 39  2  0
 39  6  1  0
 14  8  1  0
 32 17  1  0
 30 24  1  0
 39 33  1  0
M  END
$$$$
674773
     RDKit          2D

 32 32  0  0  0  0  0  0  0  0999 V2000
    0.0000   10.0933    0.0000 C   0  0  0  0  0  0  0  0  0  0  0  0
    1.2990   10.8433    0.0000 C   0  0  0  0  0  0  0  0  0  0  0  0
    1.2990   12.3433    0.0000 O   0  0  0  0  0  0  0  0  0  0  0  0
    2.5981   10.0933    0.0000 O   0  0  0  0  0  0  0  0  0  0  0  0
    6.7500   -1.2990    0.0000 F   0  0  0  0  0  0  0  0  0  0  0  0
    5.2500   -1.2990    0.0000 C   0  0  0  0  0  0  0  0  0  0  0  0
    5.2500   -2.7990    0.0000 F   0  0  0  0  0  0  0  0  0  0  0  0
    5.2500    0.2010    0.0000 F   0  0  0  0  0  0  0  0  0  0  0  0
    3.7500   -1.2990    0.0000 C   0  0  0  0  0  0  0  0  0  0  0  0
    3.0000    0.0000    0.0000 O   0  0  0  0  0  0  0  0  0  0  0  0
    1.5000    0.0000    0.0000 C   0  0  0  0  0  0  0  0  0  0  0  0
    0.7500   -1.2990    0.0000 C   0  0  0  0  0  0  0  0  0  0  0  0
   -0.7500   -1.2990    0.0000 C   0  0  0  0  0  0  0  0  0  0  0  0
   -1.5000    0.0000    0.0000 C   0  0  0  0  0  0  0  0  0  0  0  0
   -3.0000    0.0000    0.0000 O   0  0  0  0  0  0  0  0  0  0  0  0
   -3.7500   -1.2990    0.0000 C   0  0  0  0  0  0  0  0  0  0  0  0
   -5.2500   -1.2990    0.0000 C   0  0  0  0  0  0  0  0  0  0  0  0
   -6.7500   -1.2990    0.0000 F   0  0  0  0  0  0  0  0  0  0  0  0
   -5.2500   -2.7990    0.0000 F   0  0  0  0  0  0  0  0  0  0  0  0
   -5.2500    0.2010    0.0000 F   0  0  0  0  0  0  0  0  0  0  0  0
   -0.7500    1.2990    0.0000 C   0  0  0  0  0  0  0  0  0  0  0  0
    0.7500    1.2990    0.0000 C   0  0  0  0  0  0  0  0  0  0  0  0
   -1.5000    2.5981    0.0000 C   0  0  0  0  0  0  0  0  0  0  0  0
   -3.0000    2.5981    0.0000 O   0  0  0  0  0  0  0  0  0  0  0  0
   -0.7500    3.8971    0.0000 N   0  0  0  0  0  0  0  0  0  0  0  0
   -1.5000    5.1962    0.0000 C   0  0  0  0  0  0  0  0  0  0  0  0
   -0.7500    6.4952    0.0000 C   0  0  0  0  0  0  0  0  0  0  0  0
    0.7500    6.4952    0.0000 C   0  0  0  0  0  0  0  0  0  0  0  0
    1.5000    7.7942    0.0000 C   0  0  0  0  0  0  0  0  0  0  0  0
    0.7500    9.0933    0.0000 C   0  0  0  0  0  0  0  0  0  0  0  0
   -0.7500    9.0933    0.0000 C   0  0  0  0  0  0  0  0  0  0  0  0
   -1.5000    7.7942    0.0000 N   0  0  0  0  0  0  0  0  0  0  0  0
  1  2  1  0
  2  3  2  0
  2  4  1  0
  5  6  1  0
  6  7  1  0
  6  8  1  0
  6  9  1  0
  9 10  1  0
 10 11  1  0
 11 12  2  0
 12 13  1  0
 13 14  2  0
 14 15  1  0
 15 16  1  0
 16 17  1  0
 17 18  1  0
 17 19  1  0
 17 20  1  0
 14 21  1  0
 21 22  2  0
 21 23  1  0
 23 24  2  0
 23 25  1  0
 25 26  1  0
 26 27  1  0
 27 28  1  0
 28 29  1  0
 29 30  1  0
 30 31  1  0
 31 32  1  0
 22 11  1  0
 32 27  1  0
M  END
$$$$
674511
     RDKit          2D

 18 17  0  0  0  0  0  0  0  0999 V2000
    0.0000    3.5981    0.0000 C   0  0  0  0  0  0  0  0  0  0  0  0
    1.2990    4.3481    0.0000 C   0  0  0  0  0  0  0  0  0  0  0  0
    1.2990    5.8481    0.0000 O   0  0  0  0  0  0  0  0  0  0  0  0
    2.5981    3.5981    0.0000 O   0  0  0  0  0  0  0  0  0  0  0  0
    7.5000   -2.5981    0.0000 N   0  0  0  0  0  0  0  0  0  0  0  0
    6.0000   -2.5981    0.0000 C   0  0  0  0  0  0  0  0  0  0  0  0
    5.2500   -3.8971    0.0000 N   0  0  0  0  0  0  0  0  0  0  0  0
    5.2500   -1.2990    0.0000 N   0  0  0  0  0  0  0  0  0  0  0  0
    3.7500   -1.2990    0.0000 N   0  0  0  0  0  0  0  0  0  0  0  0
    3.0000    0.0000    0.0000 C   0  0  0  0  0  0  0  0  0  0  0  0
    1.5000    0.0000    0.0000 C   0  0  0  0  0  0  0  0  0  0  0  0
    0.7500   -1.2990    0.0000 C   0  0  0  0  0  0  0  0  0  0  0  0
    1.5000   -2.5981    0.0000 Cl  0  0  0  0  0  0  0  0  0  0  0  0
   -0.7500   -1.2990    0.0000 C   0  0  0  0  0  0  0  0  0  0  0  0
   -1.5000    0.0000    0.0000 C   0  0  0  0  0  0  0  0  0  0  0  0
   -0.7500    1.2990    0.0000 C   0  0  0  0  0  0  0  0  0  0  0  0
    0.7500    1.2990    0.0000 C   0  0  0  0  0  0  0  0  0  0  0  0
    1.5000    2.5981    0.0000 Cl  0  0  0  0  0  0  0  0  0  0  0  0
  1  2  1  0
  2  3  2  0
  2  4  1  0
  5  6  1  0
  6  7  2  0
  6  8  1  0
  8  9  1  0
  9 10  2  0
 10 11  1  0
 11 12  2  0
 12 13  1  0
 12 14  1  0
 14 15  2  0
 15 16  1  0
 16 17  2  0
 17 18  1  0
 17 11  1  0
M  END
$$$$
675723
     RDKit          2D

 26 29  0  0  0  0  0  0  0  0999 V2000
   -1.2990   -7.3573    0.0000 C   0  0  0  0  0  0  0  0  0  0  0  0
   -1.2990   -5.8573    0.0000 C   0  0  0  0  0  0  0  0  0  0  0  0
   -2.5981   -5.1073    0.0000 O   0  0  0  0  0  0  0  0  0  0  0  0
   -0.0000   -5.1073    0.0000 O   0  0  0  0  0  0  0  0  0  0  0  0
   -0.0000   -3.6073    0.0000 C   0  0  0  0  0  0  0  0  0  0  0  0
    1.2135   -2.7256    0.0000 C   0  0  0  0  0  0  0  0  0  0  0  0
    0.7500   -1.2990    0.0000 C   0  0  0  0  0  0  0  0  0  0  0  0
    1.5000    0.0000    0.0000 C   0  0  0  0  0  0  0  0  0  0  0  0
    0.7500    1.2990    0.0000 N   0  0  0  0  0  0  0  0  0  0  0  0
   -0.7500    1.2990    0.0000 C   0  0  0  0  0  0  0  0  0  0  0  0
   -1.5000    0.0000    0.0000 C   0  0  0  0  0  0  0  0  0  0  0  0
   -0.7500   -1.2990    0.0000 C   0  0  0  0  0  0  0  0  0  0  0  0
   -1.2135   -2.7256    0.0000 S   0  0  0  0  0  0  0  0  0  0  0  0
    1.5000    2.5981    0.0000 C   0  0  0  0  0  0  0  0  0  0  0  0
    0.7500    3.8971    0.0000 C   0  0  0  0  0  0  0  0  0  0  0  0
   -0.7500    3.8971    0.0000 O   0  0  0  0  0  0  0  0  0  0  0  0
    1.5000    5.1962    0.0000 C   0  0  0  0  0  0  0  0  0  0  0  0
    1.5000    6.6962    0.0000 C   0  0  0  0  0  0  0  0  0  0  0  0
    2.7990    5.9462    0.0000 C   0  0  0  0  0  0  0  0  0  0  0  0
    3.0000    2.5981    0.0000 C   0  0  0  0  0  0  0  0  0  0  0  0
    3.7500    3.8971    0.0000 C   0  0  0  0  0  0  0  0  0  0  0  0
    5.2500    3.8971    0.0000 C   0  0  0  0  0  0  0  0  0  0  0  0
    6.0000    2.5981    0.0000 C   0  0  0  0  0  0  0  0  0  0  0  0
    5.2500    1.2990    0.0000 C   0  0  0  0  0  0  0  0  0  0  0  0
    3.7500    1.2990    0.0000 C   0  0  0  0  0  0  0  0  0  0  0  0
    3.0000   -0.0000    0.0000 F   0  0  0  0  0  0  0  0  0  0  0  0
  1  2  1  0
  2  3  2  0
  2  4  1  0
  4  5  1  0
  5  6  2  0
  6  7  1  0
  7  8  1  0
  8  9  1  0
  9 10  1  0
 10 11  1  0
 11 12  1  0
 12 13  1  0
  9 14  1  0
 14 15  1  0
 15 16  2  0
 15 17  1  0
 17 18  1  0
 18 19  1  0
 14 20  1  0
 20 21  2  0
 21 22  1  0
 22 23  2  0
 23 24  1  0
 24 25  2  0
 25 26  1  0
 13  5  1  0
 12  7  2  0
 19 17  1  0
 25 20  1  0
M  END
$$$$
88841
     RDKit          2D

 27 29  0  0  0  0  0  0  0  0999 V2000
    5.2500   -1.2990    0.0000 C   0  0  0  0  0  0  0  0  0  0  0  0
    3.7500   -1.2990    0.0000 C   0  0  0  0  0  0  0  0  0  0  0  0
    3.0000   -2.5981    0.0000 O   0  0  0  0  0  0  0  0  0  0  0  0
    3.0000    0.0000    0.0000 O   0  0  0  0  0  0  0  0  0  0  0  0
    1.5000    0.0000    0.0000 C   0  0  0  0  0  0  0  0  0  0  0  0
    0.7500   -1.2990    0.0000 C   0  0  0  0  0  0  0  0  0  0  0  0
   -0.7500   -1.2990    0.0000 C   0  0  0  0  0  0  0  0  0  0  0  0
   -1.5000    0.0000    0.0000 C   0  0  0  0  0  0  0  0  0  0  0  0
   -0.7500    1.2990    0.0000 C   0  0  0  0  0  0  0  0  0  0  0  0
    0.7500    1.2990    0.0000 C   0  0  0  0  0  0  0  0  0  0  0  0
   -3.0000    0.0000    0.0000 C   0  0  0  0  0  0  0  0  0  0  0  0
   -3.7500    1.2990    0.0000 C   0  0  0  0  0  0  0  0  0  0  0  0
   -3.0000    2.5981    0.0000 C   0  0  0  0  0  0  0  0  0  0  0  0
   -3.7500    3.8971    0.0000 C   0  0  0  0  0  0  0  0  0  0  0  0
   -5.2500    3.8971    0.0000 C   0  0  0  0  0  0  0  0  0  0  0  0
   -6.0000    5.1962    0.0000 O   0  0  0  0  0  0  0  0  0  0  0  0
   -5.2500    6.4952    0.0000 C   0  0  0  0  0  0  0  0  0  0  0  0
   -3.7500    6.4952    0.0000 O   0  0  0  0  0  0  0  0  0  0  0  0
   -6.0000    7.7942    0.0000 C   0  0  0  0  0  0  0  0  0  0  0  0
   -6.0000    2.5981    0.0000 C   0  0  0  0  0  0  0  0  0  0  0  0
   -5.2500    1.2990    0.0000 C   0  0  0  0  0  0  0  0  0  0  0  0
   -3.7500   -1.2990    0.0000 C   0  0  0  0  0  0  0  0  0  0  0  0
   -5.2500   -1.2990    0.0000 C   0  0  0  0  0  0  0  0  0  0  0  0
   -6.0000   -2.5981    0.0000 C   0  0  0  0  0  0  0  0  0  0  0  0
   -5.2500   -3.8971    0.0000 C   0  0  0  0  0  0  0  0  0  0  0  0
   -3.7500   -3.8971    0.0000 C   0  0  0  0  0  0  0  0  0  0  0  0
   -3.0000   -2.5981    0.0000 N   0  0  0  0  0  0  0  0  0  0  0  0
  1  2  1  0
  2  3  2  0
  2  4  1  0
  4  5  1  0
  5  6  2  0
  6  7  1  0
  7  8  2  0
  8  9  1  0
  9 10  2  0
  8 11  1  0
 11 12  1  0
 12 13  2  0
 13 14  1  0
 14 15  2  0
 15 16  1  0
 16 17  1  0
 17 18  2  0
 17 19  1  0
 15 20  1  0
 20 21  2  0
 11 22  1  0
 22 23  2  0
 23 24  1  0
 24 25  2  0
 25 26  1  0
 26 27  2  0
 10  5  1  0
 21 12  1  0
 27 22  1  0
M  END
$$$$
674381
     RDKit          2D

 23 26  0  0  0  0  0  0  0  0999 V2000
    5.2500   -1.2990    0.0000 C   0  0  0  0  0  0  0  0  0  0  0  0
    3.7500   -1.2990    0.0000 C   0  0  0  0  0  0  0  0  0  0  0  0
    3.0000   -2.5981    0.0000 O   0  0  0  0  0  0  0  0  0  0  0  0
    3.0000    0.0000    0.0000 O   0  0  0  0  0  0  0  0  0  0  0  0
    1.5000    0.0000    0.0000 C   0  0  0  0  0  0  0  0  0  0  0  0
    0.7500   -1.2990    0.0000 C   0  0  0  0  0  0  0  0  0  0  0  0
   -0.7500   -1.2990    0.0000 C   0  0  0  0  0  0  0  0  0  0  0  0
   -1.5000    0.0000    0.0000 C   0  0  0  0  0  0  0  0  0  0  0  0
   -3.0000    0.0000    0.0000 C   0  0  0  0  0  0  0  0  0  0  0  0
   -3.7500   -1.2990    0.0000 C   0  0  0  0  0  0  0  0  0  0  0  0
   -5.2500   -1.2990    0.0000 C   0  0  0  0  0  0  0  0  0  0  0  0
   -6.0000   -0.0000    0.0000 C   0  0  0  0  0  0  0  0  0  0  0  0
   -6.8817   -1.2135    0.0000 C   0  0  0  0  0  0  0  0  0  0  0  0
   -7.4672    0.3119    0.0000 C   0  0  0  0  0  0  0  0  0  0  0  0
   -8.5819   -0.6918    0.0000 O   0  0  0  0  0  0  0  0  0  0  0  0
   -7.6240    1.8037    0.0000 C   0  0  0  0  0  0  0  0  0  0  0  0
   -6.2537    2.4138    0.0000 C   0  0  0  0  0  0  0  0  0  0  0  0
   -5.2500    1.2990    0.0000 C   0  0  0  0  0  0  0  0  0  0  0  0
   -3.7500    1.2990    0.0000 C   0  0  0  0  0  0  0  0  0  0  0  0
   -3.0000    2.5981    0.0000 C   0  0  0  0  0  0  0  0  0  0  0  0
   -1.5000    2.5981    0.0000 C   0  0  0  0  0  0  0  0  0  0  0  0
   -0.7500    1.2990    0.0000 C   0  0  0  0  0  0  0  0  0  0  0  0
    0.7500    1.2990    0.0000 C   0  0  0  0  0  0  0  0  0  0  0  0
  1  2  1  0
  2  3  2  0
  2  4  1  0
  4  5  1  0
  5  6  2  0
  6  7  1  0
  7  8  2  0
  8  9  1  0
  9 10  1  1
 10 11  1  0
 11 12  1  0
 12 13  1  1
 12 14  1  0
 14 15  1  1
 14 16  1  0
 16 17  1  0
 18 17  1  1
 18 19  1  0
 19 20  1  6
 20 21  1  0
 21 22  1  0
 22 23  2  0
 23  5  1  0
 22  8  1  0
 19  9  1  0
 18 12  1  0
M  END
$$$$
338934
     RDKit          2D

 21 22  0  0  0  0  0  0  0  0999 V2000
    5.2500   -1.2990    0.0000 C   0  0  0  0  0  0  0  0  0  0  0  0
    3.7500   -1.2990    0.0000 C   0  0  0  0  0  0  0  0  0  0  0  0
    3.0000   -2.5981    0.0000 O   0  0  0  0  0  0  0  0  0  0  0  0
    3.0000    0.0000    0.0000 O   0  0  0  0  0  0  0  0  0  0  0  0
    1.5000    0.0000    0.0000 C   0  0  0  0  0  0  0  0  0  0  0  0
    0.7500   -1.2990    0.0000 C   0  0  0  0  0  0  0  0  0  0  0  0
   -0.7500   -1.2990    0.0000 C   0  0  0  0  0  0  0  0  0  0  0  0
   -1.5000    0.0000    0.0000 C   0  0  0  0  0  0  0  0  0  0  0  0
   -0.7500    1.2990    0.0000 C   0  0  0  0  0  0  0  0  0  0  0  0
    0.7500    1.2990    0.0000 C   0  0  0  0  0  0  0  0  0  0  0  0
    1.5000    2.5981    0.0000 C   0  0  0  0  0  0  0  0  0  0  0  0
    0.7500    3.8971    0.0000 O   0  0  0  0  0  0  0  0  0  0  0  0
    3.0000    2.5981    0.0000 N   0  0  0  0  0  0  0  0  0  0  0  0
    3.7500    3.8971    0.0000 C   0  0  0  0  0  0  0  0  0  0  0  0
    3.1399    5.2674    0.0000 N   0  0  0  0  0  0  0  0  0  0  0  0
    4.2546    6.2711    0.0000 C   0  0  0  0  0  0  0  0  0  0  0  0
    5.5537    5.5211    0.0000 C   0  0  0  0  0  0  0  0  0  0  0  0
    5.2418    4.0539    0.0000 S   0  0  0  0  0  0  0  0  0  0  0  0
    6.9240    6.1312    0.0000 N   0  0  0  0  0  4  0  0  0  0  0  0
    7.0808    7.6230    0.0000 O   0  0  0  0  0  0  0  0  0  0  0  0
    8.1375    5.2496    0.0000 O   0  0  0  0  0  1  0  0  0  0  0  0
  1  2  1  0
  2  3  2  0
  2  4  1  0
  4  5  1  0
  5  6  2  0
  6  7  1  0
  7  8  2  0
  8  9  1  0
  9 10  2  0
 10 11  1  0
 11 12  2  0
 11 13  1  0
 13 14  1  0
 14 15  2  0
 15 16  1  0
 16 17  2  0
 17 18  1  0
 17 19  1  0
 19 20  2  0
 19 21  1  0
 10  5  1  0
 18 14  1  0
M  CHG  2  19   1  21  -1
M  END
$$$$
1280
     RDKit          2D

 13 13  0  0  0  0  0  0  0  0999 V2000
    5.2500   -1.2990    0.0000 C   0  0  0  0  0  0  0  0  0  0  0  0
    3.7500   -1.2990    0.0000 C   0  0  0  0  0  0  0  0  0  0  0  0
    3.0000   -2.5981    0.0000 O   0  0  0  0  0  0  0  0  0  0  0  0
    3.0000    0.0000    0.0000 O   0  0  0  0  0  0  0  0  0  0  0  0
    1.5000    0.0000    0.0000 C   0  0  0  0  0  0  0  0  0  0  0  0
    0.7500   -1.2990    0.0000 C   0  0  0  0  0  0  0  0  0  0  0  0
   -0.7500   -1.2990    0.0000 C   0  0  0  0  0  0  0  0  0  0  0  0
   -1.5000    0.0000    0.0000 C   0  0  0  0  0  0  0  0  0  0  0  0
   -0.7500    1.2990    0.0000 C   0  0  0  0  0  0  0  0  0  0  0  0
    0.7500    1.2990    0.0000 C   0  0  0  0  0  0  0  0  0  0  0  0
    1.5000    2.5981    0.0000 C   0  0  0  0  0  0  0  0  0  0  0  0
    0.7500    3.8971    0.0000 O   0  0  0  0  0  0  0  0  0  0  0  0
    3.0000    2.5981    0.0000 O   0  0  0  0  0  0  0  0  0  0  0  0
  1  2  1  0
  2  3  2  0
  2  4  1  0
  4  5  1  0
  5  6  2  0
  6  7  1  0
  7  8  2  0
  8  9  1  0
  9 10  2  0
 10 11  1  0
 11 12  2  0
 11 13  1  0
 10  5  1  0
M  END
$$$$
182546
     RDKit          2D

 29 32  0  0  0  0  0  0  0  0999 V2000
   -8.7135  -10.5199    0.0000 C   0  0  0  0  0  0  0  0  0  0  0  0
   -7.9635   -9.2208    0.0000 C   0  0  0  0  0  0  0  0  0  0  0  0
   -8.7135   -7.9218    0.0000 O   0  0  0  0  0  0  0  0  0  0  0  0
   -6.4635   -9.2208    0.0000 O   0  0  0  0  0  0  0  0  0  0  0  0
   -5.7135   -7.9218    0.0000 C   0  0  0  0  0  0  0  0  0  0  0  0
   -4.2135   -7.9218    0.0000 C   0  0  0  0  0  0  0  0  0  0  0  0
   -3.4635   -9.2208    0.0000 O   0  0  0  0  0  0  0  0  0  0  0  0
   -3.4635   -6.6227    0.0000 C   0  0  0  0  0  0  0  0  0  0  0  0
   -4.8980   -6.1842    0.0000 O   0  0  0  0  0  0  0  0  0  0  0  0
   -2.2500   -7.5044    0.0000 C   0  0  0  0  0  0  0  0  0  0  0  0
   -1.0365   -6.6227    0.0000 C   0  0  0  0  0  0  0  0  0  0  0  0
   -1.5000   -5.1962    0.0000 C   0  0  0  0  0  0  0  0  0  0  0  0
   -0.7500   -3.8971    0.0000 C   0  0  0  0  0  0  0  0  0  0  0  0
    0.7500   -3.8971    0.0000 C   0  0  0  0  0  0  0  0  0  0  0  0
    1.5000   -2.5981    0.0000 C   0  0  0  0  0  0  0  0  0  0  0  0
    0.7500   -1.2990    0.0000 C   0  0  0  0  0  0  0  0  0  0  0  0
    1.5000    0.0000    0.0000 C   0  0  0  0  0  0  0  0  0  0  0  0
    0.7500    1.2990    0.0000 C   0  0  0  0  0  0  0  0  0  0  0  0
    1.5000    2.5981    0.0000 O   0  0  0  0  0  0  0  0  0  0  0  0
   -0.7500    1.2990    0.0000 C   0  0  0  0  0  0  0  0  0  0  0  0
   -1.5000    0.0000    0.0000 C   0  0  0  0  0  0  0  0  0  0  0  0
   -0.7500   -1.2990    0.0000 C   0  0  0  0  0  0  0  0  0  0  0  0
   -2.2500   -1.2990    0.0000 C   0  0  0  0  0  0  0  0  0  0  0  0
   -1.5000   -2.5981    0.0000 C   0  0  0  0  0  0  0  0  0  0  0  0
   -3.0000   -2.5981    0.0000 C   0  0  0  0  0  0  0  0  0  0  0  0
   -3.7500   -1.2990    0.0000 O   0  0  0  0  0  0  0  0  0  0  0  0
   -3.7500   -3.8971    0.0000 C   0  0  0  0  0  0  0  0  0  0  0  0
   -3.0000   -5.1962    0.0000 C   0  0  0  0  0  0  0  0  0  0  0  0
   -4.4998   -5.1699    0.0000 C   0  0  0  0  0  0  0  0  0  0  0  0
  1  2  1  0
  2  3  2  0
  2  4  1  0
  4  5  1  0
  5  6  1  0
  6  7  2  0
  6  8  1  0
  8  9  1  1
  8 10  1  0
 10 11  1  0
 12 11  1  6
 12 13  1  0
 13 14  1  1
 14 15  1  0
 15 16  1  0
 16 17  2  0
 17 18  1  0
 18 19  2  0
 18 20  1  0
 20 21  2  0
 21 22  1  0
 22 23  1  6
 22 24  1  0
 24 25  1  6
 25 26  1  6
 25 27  1  0
 27 28  1  0
 28 29  1  6
 28  8  1  0
 28 12  1  0
 24 13  1  0
 22 16  1  0
M  END
$$$$
674961
     RDKit          2D

 30 33  0  0  0  0  0  0  0  0999 V2000
   -8.7135  -10.5199    0.0000 C   0  0  0  0  0  0  0  0  0  0  0  0
   -7.9635   -9.2208    0.0000 C   0  0  0  0  0  0  0  0  0  0  0  0
   -8.7135   -7.9218    0.0000 O   0  0  0  0  0  0  0  0  0  0  0  0
   -6.4635   -9.2208    0.0000 O   0  0  0  0  0  0  0  0  0  0  0  0
   -5.7135   -7.9218    0.0000 C   0  0  0  0  0  0  0  0  0  0  0  0
   -4.2135   -7.9218    0.0000 C   0  0  0  0  0  0  0  0  0  0  0  0
   -3.4635   -9.2208    0.0000 O   0  0  0  0  0  0  0  0  0  0  0  0
   -3.4635   -6.6227    0.0000 C   0  0  0  0  0  0  0  0  0  0  0  0
   -4.8980   -6.1842    0.0000 O   0  0  0  0  0  0  0  0  0  0  0  0
   -2.2500   -7.5044    0.0000 C   0  0  0  0  0  0  0  0  0  0  0  0
   -1.0365   -6.6227    0.0000 C   0  0  0  0  0  0  0  0  0  0  0  0
   -1.5000   -5.1962    0.0000 C   0  0  0  0  0  0  0  0  0  0  0  0
   -0.7500   -3.8971    0.0000 C   0  0  0  0  0  0  0  0  0  0  0  0
    0.7500   -3.8971    0.0000 C   0  0  0  0  0  0  0  0  0  0  0  0
    1.5000   -2.5981    0.0000 C   0  0  0  0  0  0  0  0  0  0  0  0
    0.7500   -1.2990    0.0000 C   0  0  0  0  0  0  0  0  0  0  0  0
    1.5000    0.0000    0.0000 C   0  0  0  0  0  0  0  0  0  0  0  0
    0.7500    1.2990    0.0000 C   0  0  0  0  0  0  0  0  0  0  0  0
    1.5000    2.5981    0.0000 O   0  0  0  0  0  0  0  0  0  0  0  0
   -0.7500    1.2990    0.0000 C   0  0  0  0  0  0  0  0  0  0  0  0
   -1.5000    0.0000    0.0000 C   0  0  0  0  0  0  0  0  0  0  0  0
   -0.7500   -1.2990    0.0000 C   0  0  0  0  0  0  0  0  0  0  0  0
   -2.2500   -1.2990    0.0000 C   0  0  0  0  0  0  0  0  0  0  0  0
   -1.5000   -2.5981    0.0000 C   0  0  0  0  0  0  0  0  0  0  0  0
   -2.2500   -3.8971    0.0000 F   0  0  0  0  0  0  0  0  0  0  0  0
   -3.0000   -2.5981    0.0000 C   0  0  0  0  0  0  0  0  0  0  0  0
   -3.7500   -1.2990    0.0000 O   0  0  0  0  0  0  0  0  0  0  0  0
   -3.7500   -3.8971    0.0000 C   0  0  0  0  0  0  0  0  0  0  0  0
   -3.0000   -5.1962    0.0000 C   0  0  0  0  0  0  0  0  0  0  0  0
   -4.4998   -5.1699    0.0000 C   0  0  0  0  0  0  0  0  0  0  0  0
  1  2  1  0
  2  3  2  0
  2  4  1  0
  4  5  1  0
  5  6  1  0
  6  7  2  0
  6  8  1  0
  8  9  1  1
  8 10  1  0
 10 11  1  0
 12 11  1  6
 12 13  1  0
 13 14  1  1
 14 15  1  0
 15 16  1  0
 16 17  2  0
 17 18  1  0
 18 19  2  0
 18 20  1  0
 20 21  1  0
 21 22  1  0
 22 23  1  6
 22 24  1  0
 24 25  1  1
 24 26  1  0
 26 27  1  6
 26 28  1  0
 28 29  1  0
 29 30  1  6
 29  8  1  0
 29 12  1  0
 24 13  1  0
 22 16  1  0
M  END
$$$$
487711
     RDKit          2D

 29 32  0  0  0  0  0  0  0  0999 V2000
   -8.7135  -10.5199    0.0000 C   0  0  0  0  0  0  0  0  0  0  0  0
   -7.9635   -9.2208    0.0000 C   0  0  0  0  0  0  0  0  0  0  0  0
   -8.7135   -7.9218    0.0000 O   0  0  0  0  0  0  0  0  0  0  0  0
   -6.4635   -9.2208    0.0000 O   0  0  0  0  0  0  0  0  0  0  0  0
   -5.7135   -7.9218    0.0000 C   0  0  0  0  0  0  0  0  0  0  0  0
   -4.2135   -7.9218    0.0000 C   0  0  0  0  0  0  0  0  0  0  0  0
   -3.4635   -9.2208    0.0000 O   0  0  0  0  0  0  0  0  0  0  0  0
   -3.4635   -6.6227    0.0000 C   0  0  0  0  0  0  0  0  0  0  0  0
   -4.8980   -6.1842    0.0000 O   0  0  0  0  0  0  0  0  0  0  0  0
   -2.2500   -7.5044    0.0000 C   0  0  0  0  0  0  0  0  0  0  0  0
   -1.0365   -6.6227    0.0000 C   0  0  0  0  0  0  0  0  0  0  0  0
   -1.5000   -5.1962    0.0000 C   0  0  0  0  0  0  0  0  0  0  0  0
   -0.7500   -3.8971    0.0000 C   0  0  0  0  0  0  0  0  0  0  0  0
    0.7500   -3.8971    0.0000 C   0  0  0  0  0  0  0  0  0  0  0  0
    1.5000   -2.5981    0.0000 C   0  0  0  0  0  0  0  0  0  0  0  0
    0.7500   -1.2990    0.0000 C   0  0  0  0  0  0  0  0  0  0  0  0
    1.5000    0.0000    0.0000 C   0  0  0  0  0  0  0  0  0  0  0  0
    0.7500    1.2990    0.0000 C   0  0  0  0  0  0  0  0  0  0  0  0
    1.5000    2.5981    0.0000 O   0  0  0  0  0  0  0  0  0  0  0  0
   -0.7500    1.2990    0.0000 C   0  0  0  0  0  0  0  0  0  0  0  0
   -1.5000    0.0000    0.0000 C   0  0  0  0  0  0  0  0  0  0  0  0
   -0.7500   -1.2990    0.0000 C   0  0  0  0  0  0  0  0  0  0  0  0
   -2.2500   -1.2990    0.0000 C   0  0  0  0  0  0  0  0  0  0  0  0
   -1.5000   -2.5981    0.0000 C   0  0  0  0  0  0  0  0  0  0  0  0
   -3.0000   -2.5981    0.0000 C   0  0  0  0  0  0  0  0  0  0  0  0
   -3.7500   -1.2990    0.0000 O   0  0  0  0  0  0  0  0  0  0  0  0
   -3.7500   -3.8971    0.0000 C   0  0  0  0  0  0  0  0  0  0  0  0
   -3.0000   -5.1962    0.0000 C   0  0  0  0  0  0  0  0  0  0  0  0
   -4.4998   -5.1699    0.0000 C   0  0  0  0  0  0  0  0  0  0  0  0
  1  2  1  0
  2  3  2  0
  2  4  1  0
  4  5  1  0
  5  6  1  0
  6  7  2  0
  6  8  1  0
  8  9  1  1
  8 10  1  0
 10 11  1  0
 12 11  1  6
 12 13  1  0
 13 14  1  1
 14 15  1  0
 15 16  1  0
 16 17  2  0
 17 18  1  0
 18 19  2  0
 18 20  1  0
 20 21  1  0
 21 22  1  0
 22 23  1  6
 22 24  1  0
 24 25  1  6
 25 26  2  0
 25 27  1  0
 27 28  1  0
 28 29  1  6
 28  8  1  0
 28 12  1  0
 24 13  1  0
 22 16  1  0
M  END
$$$$
674400
     RDKit          2D

 34 37  0  0  0  0  0  0  0  0999 V2000
   -8.7135  -10.5199    0.0000 C   0  0  0  0  0  0  0  0  0  0  0  0
   -7.9635   -9.2208    0.0000 C   0  0  0  0  0  0  0  0  0  0  0  0
   -8.7135   -7.9218    0.0000 O   0  0  0  0  0  0  0  0  0  0  0  0
   -6.4635   -9.2208    0.0000 O   0  0  0  0  0  0  0  0  0  0  0  0
   -5.7135   -7.9218    0.0000 C   0  0  0  0  0  0  0  0  0  0  0  0
   -4.2135   -7.9218    0.0000 C   0  0  0  0  0  0  0  0  0  0  0  0
   -3.9122   -8.9729    0.0000 O   0  0  0  0  0  0  0  0  0  0  0  0
   -3.4635   -6.6227    0.0000 C   0  0  0  0  0  0  0  0  0  0  0  0
   -4.8980   -6.1842    0.0000 O   0  0  0  0  0  0  0  0  0  0  0  0
   -2.2500   -7.5044    0.0000 C   0  0  0  0  0  0  0  0  0  0  0  0
   -1.0365   -6.6227    0.0000 C   0  0  0  0  0  0  0  0  0  0  0  0
   -1.5000   -5.1962    0.0000 C   0  0  0  0  0  0  0  0  0  0  0  0
   -0.7500   -3.8971    0.0000 C   0  0  0  0  0  0  0  0  0  0  0  0
    0.7500   -3.8971    0.0000 C   0  0  0  0  0  0  0  0  0  0  0  0
    1.5000   -2.5981    0.0000 C   0  0  0  0  0  0  0  0  0  0  0  0
    0.7500   -1.2990    0.0000 C   0  0  0  0  0  0  0  0  0  0  0  0
    1.5000    0.0000    0.0000 C   0  0  0  0  0  0  0  0  0  0  0  0
    0.7500    1.2990    0.0000 C   0  0  0  0  0  0  0  0  0  0  0  0
    1.5000    2.5981    0.0000 O   0  0  0  0  0  0  0  0  0  0  0  0
   -0.7500    1.2990    0.0000 C   0  0  0  0  0  0  0  0  0  0  0  0
   -1.5000    0.0000    0.0000 C   0  0  0  0  0  0  0  0  0  0  0  0
   -0.7500   -1.2990    0.0000 C   0  0  0  0  0  0  0  0  0  0  0  0
   -2.2500   -1.2990    0.0000 C   0  0  0  0  0  0  0  0  0  0  0  0
   -1.5000   -2.5981    0.0000 C   0  0  0  0  0  0  0  0  0  0  0  0
   -2.2500   -3.8971    0.0000 F   0  0  0  0  0  0  0  0  0  0  0  0
   -3.0000   -2.5981    0.0000 C   0  0  0  0  0  0  0  0  0  0  0  0
   -3.7500   -1.2990    0.0000 O   0  0  0  0  0  0  0  0  0  0  0  0
   -3.7500   -3.8971    0.0000 C   0  0  0  0  0  0  0  0  0  0  0  0
   -3.0000   -5.1962    0.0000 C   0  0  0  0  0  0  0  0  0  0  0  0
   -4.4998   -5.1699    0.0000 C   0  0  0  0  0  0  0  0  0  0  0  0
   -2.2500   -9.0044    0.0000 O   0  0  0  0  0  0  0  0  0  0  0  0
   -3.5490   -9.7544    0.0000 C   0  0  0  0  0  0  0  0  0  0  0  0
   -4.8481   -9.0044    0.0000 O   0  0  0  0  0  0  0  0  0  0  0  0
   -3.5490  -11.2544    0.0000 C   0  0  0  0  0  0  0  0  0  0  0  0
  1  2  1  0
  2  3  2  0
  2  4  1  0
  4  5  1  0
  5  6  1  0
  6  7  2  0
  6  8  1  0
  8  9  1  1
  8 10  1  0
 10 11  1  0
 12 11  1  6
 12 13  1  0
 13 14  1  1
 14 15  1  0
 15 16  1  0
 16 17  2  0
 17 18  1  0
 18 19  2  0
 18 20  1  0
 20 21  2  0
 21 22  1  0
 22 23  1  6
 22 24  1  0
 24 25  1  1
 24 26  1  0
 26 27  1  6
 26 28  1  0
 28 29  1  0
 29 30  1  6
 10 31  1  1
 31 32  1  0
 32 33  2  0
 32 34  1  0
 29  8  1  0
 29 12  1  0
 24 13  1  0
 22 16  1  0
M  END
$$$$
74284
     RDKit          2D

 23 24  0  0  0  0  0  0  0  0999 V2000
   -7.8555   -8.9814    0.0000 C   0  0  0  0  0  0  0  0  0  0  0  0
   -6.4289   -8.5179    0.0000 C   0  0  0  0  0  0  0  0  0  0  0  0
   -5.3142   -9.5216    0.0000 O   0  0  0  0  0  0  0  0  0  0  0  0
   -6.1170   -7.0506    0.0000 O   0  0  0  0  0  0  0  0  0  0  0  0
   -4.6904   -6.5871    0.0000 C   0  0  0  0  0  0  0  0  0  0  0  0
   -4.3786   -5.1199    0.0000 C   0  0  0  0  0  0  0  0  0  0  0  0
   -2.9520   -4.6564    0.0000 C   0  0  0  0  0  0  0  0  0  0  0  0
   -2.6401   -3.1891    0.0000 C   0  0  0  0  0  0  0  0  0  0  0  0
   -1.2135   -2.7256    0.0000 N   0  0  0  0  0  0  0  0  0  0  0  0
   -0.0000   -3.6073    0.0000 C   0  0  0  0  0  0  0  0  0  0  0  0
    1.2135   -2.7256    0.0000 N   0  0  0  0  0  0  0  0  0  0  0  0
    0.7500   -1.2990    0.0000 C   0  0  0  0  0  0  0  0  0  0  0  0
    1.5000    0.0000    0.0000 C   0  0  0  0  0  0  0  0  0  0  0  0
    0.7500    1.2990    0.0000 N   0  0  0  0  0  0  0  0  0  0  0  0
   -0.7500    1.2990    0.0000 C   0  0  0  0  0  0  0  0  0  0  0  0
   -1.5000    2.5981    0.0000 N   0  0  0  0  0  0  0  0  0  0  0  0
   -1.5000    0.0000    0.0000 N   0  0  0  0  0  0  0  0  0  0  0  0
   -0.7500   -1.2990    0.0000 C   0  0  0  0  0  0  0  0  0  0  0  0
   -5.4933   -4.1162    0.0000 C   0  0  0  0  0  0  0  0  0  0  0  0
   -6.9199   -4.5797    0.0000 O   0  0  0  0  0  0  0  0  0  0  0  0
   -8.0346   -3.5760    0.0000 C   0  0  0  0  0  0  0  0  0  0  0  0
   -7.7227   -2.1088    0.0000 O   0  0  0  0  0  0  0  0  0  0  0  0
   -9.4612   -4.0396    0.0000 C   0  0  0  0  0  0  0  0  0  0  0  0
  1  2  1  0
  2  3  2  0
  2  4  1  0
  4  5  1  0
  5  6  1  0
  6  7  1  0
  7  8  1  0
  8  9  1  0
  9 10  1  0
 10 11  2  0
 11 12  1  0
 12 13  2  0
 13 14  1  0
 14 15  2  0
 15 16  1  0
 15 17  1  0
 17 18  2  0
  6 19  1  0
 19 20  1  0
 20 21  1  0
 21 22  2  0
 21 23  1  0
 18  9  1  0
 18 12  1  0
M  END
$$$$
674922
     RDKit          2D

 28 30  0  0  0  0  0  0  0  0999 V2000
    6.0000   -2.5981    0.0000 C   0  0  0  0  0  0  0  0  0  0  0  0
    5.2500   -1.2990    0.0000 C   0  0  0  0  0  0  0  0  0  0  0  0
    6.0000    0.0000    0.0000 O   0  0  0  0  0  0  0  0  0  0  0  0
    3.7500   -1.2990    0.0000 O   0  0  0  0  0  0  0  0  0  0  0  0
    3.0000    0.0000    0.0000 C   0  0  0  0  0  0  0  0  0  0  0  0
    1.5000    0.0000    0.0000 C   0  0  0  0  0  0  0  0  0  0  0  0
    0.7500   -1.2990    0.0000 C   0  0  0  0  0  0  0  0  0  0  0  0
   -0.7500   -1.2990    0.0000 N   0  0  0  0  0  0  0  0  0  0  0  0
   -1.5000    0.0000    0.0000 C   0  0  0  0  0  0  0  0  0  0  0  0
   -0.7500    1.2990    0.0000 S   0  0  0  0  0  0  0  0  0  0  0  0
    0.7500    1.2990    0.0000 C   0  0  0  0  0  0  0  0  0  0  0  0
   -2.7990   -0.7500    0.0000 C   0  0  0  0  0  0  0  0  0  0  0  0
   -4.2479   -0.3618    0.0000 N   0  0  0  0  0  0  0  0  0  0  0  0
   -4.6362    1.0871    0.0000 C   0  0  0  0  0  0  0  0  0  0  0  0
   -3.5755    2.1478    0.0000 O   0  0  0  0  0  0  0  0  0  0  0  0
   -6.0850    1.4753    0.0000 C   0  0  0  0  0  0  0  0  0  0  0  0
   -7.1457    0.4147    0.0000 N   0  0  0  0  0  0  0  0  0  0  0  0
   -6.4733    2.9242    0.0000 C   0  0  0  0  0  0  0  0  0  0  0  0
   -5.4126    3.9849    0.0000 C   0  0  0  0  0  0  0  0  0  0  0  0
   -5.8008    5.4338    0.0000 C   0  0  0  0  0  0  0  0  0  0  0  0
   -7.2497    5.8220    0.0000 C   0  0  0  0  0  0  0  0  0  0  0  0
   -8.3104    4.7614    0.0000 C   0  0  0  0  0  0  0  0  0  0  0  0
   -7.9222    3.3125    0.0000 C   0  0  0  0  0  0  0  0  0  0  0  0
   -2.0490   -2.0490    0.0000 C   0  0  0  0  0  0  0  0  0  0  0  0
   -2.4373   -3.4979    0.0000 O   0  0  0  0  0  0  0  0  0  0  0  0
    1.5000   -2.5981    0.0000 C   0  0  0  0  0  0  0  0  0  0  0  0
    3.0000   -2.5981    0.0000 O   0  0  0  0  0  0  0  0  0  0  0  0
    0.7500   -3.8971    0.0000 O   0  0  0  0  0  0  0  0  0  0  0  0
  1  2  1  0
  2  3  2  0
  2  4  1  0
  4  5  1  0
  5  6  1  0
  6  7  2  0
  7  8  1  0
  8  9  1  0
  9 10  1  1
 10 11  1  0
  9 12  1  0
 12 13  1  1
 13 14  1  0
 14 15  2  0
 14 16  1  0
 16 17  1  6
 16 18  1  0
 18 19  2  0
 19 20  1  0
 20 21  2  0
 21 22  1  0
 22 23  2  0
 12 24  1  0
 24 25  2  0
  7 26  1  0
 26 27  2  0
 26 28  1  0
 11  6  1  0
 24  8  1  0
 23 18  1  0
M  END
$$$$
1379651
     RDKit          2D

 26 27  0  0  0  0  0  0  0  0999 V2000
    8.4713   -3.6789    0.0000 C   0  0  0  0  0  0  0  0  0  0  0  0
    7.2578   -4.5606    0.0000 C   0  0  0  0  0  0  0  0  0  0  0  0
    7.4146   -6.0524    0.0000 O   0  0  0  0  0  0  0  0  0  0  0  0
    5.8875   -3.9505    0.0000 O   0  0  0  0  0  0  0  0  0  0  0  0
    4.6740   -4.8322    0.0000 C   0  0  0  0  0  0  0  0  0  0  0  0
    3.3037   -4.2221    0.0000 C   0  0  0  0  0  0  0  0  0  0  0  0
    2.9918   -2.7549    0.0000 O   0  0  0  0  0  0  0  0  0  0  0  0
    1.5000   -2.5981    0.0000 C   0  0  0  0  0  0  0  0  0  0  0  0
    0.8899   -3.9684    0.0000 C   0  0  0  0  0  0  0  0  0  0  0  0
   -0.5773   -4.2803    0.0000 O   0  0  0  0  0  0  0  0  0  0  0  0
   -1.0409   -5.7068    0.0000 C   0  0  0  0  0  0  0  0  0  0  0  0
   -0.0372   -6.8216    0.0000 O   0  0  0  0  0  0  0  0  0  0  0  0
   -2.5081   -6.0187    0.0000 C   0  0  0  0  0  0  0  0  0  0  0  0
    2.0046   -4.9721    0.0000 C   0  0  0  0  0  0  0  0  0  0  0  0
    1.8478   -6.4639    0.0000 O   0  0  0  0  0  0  0  0  0  0  0  0
    3.0613   -7.3456    0.0000 C   0  0  0  0  0  0  0  0  0  0  0  0
    4.4317   -6.7354    0.0000 O   0  0  0  0  0  0  0  0  0  0  0  0
    2.9046   -8.8373    0.0000 C   0  0  0  0  0  0  0  0  0  0  0  0
    0.7500   -1.2990    0.0000 N   0  0  0  0  0  0  0  0  0  0  0  0
    1.5000    0.0000    0.0000 C   0  0  0  0  0  0  0  0  0  0  0  0
    0.7500    1.2990    0.0000 C   0  0  0  0  0  0  0  0  0  0  0  0
   -0.7500    1.2990    0.0000 C   0  0  0  0  0  0  0  0  0  0  0  0
   -1.5000    2.5981    0.0000 O   0  0  0  0  0  0  0  0  0  0  0  0
   -1.5000    0.0000    0.0000 N   0  0  0  0  0  0  0  0  0  0  0  0
   -0.7500   -1.2990    0.0000 C   0  0  0  0  0  0  0  0  0  0  0  0
   -1.5000   -2.5981    0.0000 O   0  0  0  0  0  0  0  0  0  0  0  0
  1  2  1  0
  2  3  2  0
  2  4  1  0
  4  5  1  0
  6  5  1  6
  6  7  1  0
  7  8  1  0
  8  9  1  0
  9 10  1  1
 10 11  1  0
 11 12  2  0
 11 13  1  0
  9 14  1  0
 14 15  1  1
 15 16  1  0
 16 17  2  0
 16 18  1  0
  8 19  1  6
 19 20  1  0
 20 21  2  0
 21 22  1  0
 22 23  2  0
 22 24  1  0
 24 25  1  0
 25 26  2  0
 14  6  1  0
 25 19  1  0
M  END
$$$$
675090
     RDKit          2D

 28 31  0  0  0  0  0  0  0  0999 V2000
   -7.4177   -6.2842    0.0000 C   0  0  0  0  0  0  0  0  0  0  0  0
   -6.0474   -6.8943    0.0000 C   0  0  0  0  0  0  0  0  0  0  0  0
   -6.0646   -7.8783    0.0000 O   0  0  0  0  0  0  0  0  0  0  0  0
   -4.8338   -6.0126    0.0000 O   0  0  0  0  0  0  0  0  0  0  0  0
   -3.4635   -6.6227    0.0000 C   0  0  0  0  0  0  0  0  0  0  0  0
   -2.2500   -7.5044    0.0000 C   0  0  0  0  0  0  0  0  0  0  0  0
   -1.0365   -6.6227    0.0000 C   0  0  0  0  0  0  0  0  0  0  0  0
   -1.5000   -5.1962    0.0000 C   0  0  0  0  0  0  0  0  0  0  0  0
   -0.7500   -3.8971    0.0000 C   0  0  0  0  0  0  0  0  0  0  0  0
    0.7500   -3.8971    0.0000 C   0  0  0  0  0  0  0  0  0  0  0  0
    1.5000   -2.5981    0.0000 C   0  0  0  0  0  0  0  0  0  0  0  0
    3.0000   -2.5981    0.0000 C   0  0  0  0  0  0  0  0  0  0  0  0
    0.7500   -1.2990    0.0000 C   0  0  0  0  0  0  0  0  0  0  0  0
    1.5000    0.0000    0.0000 C   0  0  0  0  0  0  0  0  0  0  0  0
    0.7500    1.2990    0.0000 C   0  0  0  0  0  0  0  0  0  0  0  0
    1.5000    2.5981    0.0000 O   0  0  0  0  0  0  0  0  0  0  0  0
   -0.7500    1.2990    0.0000 C   0  0  0  0  0  0  0  0  0  0  0  0
   -1.5000    0.0000    0.0000 C   0  0  0  0  0  0  0  0  0  0  0  0
   -0.7500   -1.2990    0.0000 C   0  0  0  0  0  0  0  0  0  0  0  0
   -2.2500   -1.2990    0.0000 C   0  0  0  0  0  0  0  0  0  0  0  0
   -1.5000   -2.5981    0.0000 C   0  0  0  0  0  0  0  0  0  0  0  0
   -3.0000   -2.5981    0.0000 C   0  0  0  0  0  0  0  0  0  0  0  0
   -3.7500   -3.8971    0.0000 C   0  0  0  0  0  0  0  0  0  0  0  0
   -3.0000   -5.1962    0.0000 C   0  0  0  0  0  0  0  0  0  0  0  0
   -4.4854   -4.9873    0.0000 C   0  0  0  0  0  0  0  0  0  0  0  0
   -4.2135   -7.9218    0.0000 C   0  0  0  0  0  0  0  0  0  0  0  0
   -3.4635   -9.2208    0.0000 O   0  0  0  0  0  0  0  0  0  0  0  0
   -5.1903   -8.0417    0.0000 C   0  0  0  0  0  0  0  0  0  0  0  0
  1  2  1  0
  2  3  2  0
  2  4  1  0
  5  4  1  1
  5  6  1  0
  6  7  1  0
  8  7  1  6
  8  9  1  0
  9 10  1  1
 10 11  2  0
 11 12  1  0
 11 13  1  0
 13 14  2  0
 14 15  1  0
 15 16  2  0
 15 17  1  0
 17 18  1  0
 18 19  1  0
 19 20  1  6
 19 21  1  0
 21 22  1  6
 22 23  1  0
 23 24  1  0
 24 25  1  6
  5 26  1  0
 26 27  2  0
 26 28  1  0
 24  5  1  0
 24  8  1  0
 21  9  1  0
 19 13  1  0
M  END
$$$$
139940
     RDKit          2D

 22 24  0  0  0  0  0  0  0  0999 V2000
    5.0933   -5.2566    0.0000 C   0  0  0  0  0  0  0  0  0  0  0  0
    3.9205   -4.3214    0.0000 C   0  0  0  0  0  0  0  0  0  0  0  0
    4.1441   -2.8382    0.0000 O   0  0  0  0  0  0  0  0  0  0  0  0
    2.5242   -4.8694    0.0000 O   0  0  0  0  0  0  0  0  0  0  0  0
    1.3515   -3.9342    0.0000 C   0  0  0  0  0  0  0  0  0  0  0  0
    1.6852   -2.4718    0.0000 C   0  0  0  0  0  0  0  0  0  0  0  0
    0.7500   -1.2990    0.0000 C   0  0  0  0  0  0  0  0  0  0  0  0
    1.5000    0.0000    0.0000 C   0  0  0  0  0  0  0  0  0  0  0  0
    0.7500    1.2990    0.0000 C   0  0  0  0  0  0  0  0  0  0  0  0
   -0.7500    1.2990    0.0000 C   0  0  0  0  0  0  0  0  0  0  0  0
   -1.5000    0.0000    0.0000 C   0  0  0  0  0  0  0  0  0  0  0  0
   -0.7500   -1.2990    0.0000 C   0  0  0  0  0  0  0  0  0  0  0  0
   -1.6852   -2.4718    0.0000 N   0  0  0  0  0  0  0  0  0  0  0  0
   -3.1476   -2.1380    0.0000 C   0  0  0  0  0  0  0  0  0  0  0  0
   -4.1679   -3.2376    0.0000 O   0  0  0  0  0  0  0  0  0  0  0  0
   -3.5898   -0.7046    0.0000 N   0  0  0  0  0  0  0  0  0  0  0  0
   -1.3515   -3.9342    0.0000 C   0  0  0  0  0  0  0  0  0  0  0  0
   -2.5908   -4.7792    0.0000 C   0  0  0  0  0  0  0  0  0  0  0  0
   -2.4787   -6.2750    0.0000 C   0  0  0  0  0  0  0  0  0  0  0  0
   -1.1273   -6.9258    0.0000 C   0  0  0  0  0  0  0  0  0  0  0  0
    0.1121   -6.0808    0.0000 C   0  0  0  0  0  0  0  0  0  0  0  0
   -0.0000   -4.5850    0.0000 C   0  0  0  0  0  0  0  0  0  0  0  0
  1  2  1  0
  2  3  2  0
  2  4  1  0
  5  4  1  6
  5  6  1  0
  6  7  1  0
  7  8  2  0
  8  9  1  0
  9 10  2  0
 10 11  1  0
 11 12  2  0
 12 13  1  0
 13 14  1  0
 14 15  2  0
 14 16  1  0
 13 17  1  0
 17 18  2  0
 18 19  1  0
 19 20  2  0
 20 21  1  0
 21 22  2  0
 22  5  1  0
 12  7  1  0
 22 17  1  0
M  END
$$$$
674575
     RDKit          2D

 28 31  0  0  0  0  0  0  0  0999 V2000
    5.2500   -1.2990    0.0000 C   0  0  0  0  0  0  0  0  0  0  0  0
    3.7500   -1.2990    0.0000 C   0  0  0  0  0  0  0  0  0  0  0  0
    3.0000   -2.5981    0.0000 O   0  0  0  0  0  0  0  0  0  0  0  0
    3.0000    0.0000    0.0000 O   0  0  0  0  0  0  0  0  0  0  0  0
    1.5000    0.0000    0.0000 C   0  0  0  0  0  0  0  0  0  0  0  0
    0.7500   -1.2990    0.0000 C   0  0  0  0  0  0  0  0  0  0  0  0
   -0.7500   -1.2990    0.0000 C   0  0  0  0  0  0  0  0  0  0  0  0
   -1.5000    0.0000    0.0000 C   0  0  0  0  0  0  0  0  0  0  0  0
   -3.0000    0.0000    0.0000 C   0  0  0  0  0  0  0  0  0  0  0  0
   -3.7500   -1.2990    0.0000 C   0  0  0  0  0  0  0  0  0  0  0  0
   -5.2500   -1.2990    0.0000 C   0  0  0  0  0  0  0  0  0  0  0  0
   -6.0000   -0.0000    0.0000 C   0  0  0  0  0  0  0  0  0  0  0  0
   -6.5618   -1.3908    0.0000 C   0  0  0  0  0  0  0  0  0  0  0  0
   -5.2500    1.2990    0.0000 C   0  0  0  0  0  0  0  0  0  0  0  0
   -6.2537    2.4138    0.0000 C   0  0  0  0  0  0  0  0  0  0  0  0
   -7.6240    1.8037    0.0000 C   0  0  0  0  0  0  0  0  0  0  0  0
   -7.4672    0.3119    0.0000 C   0  0  0  0  0  0  0  0  0  0  0  0
   -7.6240   -1.1799    0.0000 O   0  0  0  0  0  0  0  0  0  0  0  0
   -8.9943   -1.7900    0.0000 C   0  0  0  0  0  0  0  0  0  0  0  0
  -10.2079   -0.9083    0.0000 O   0  0  0  0  0  0  0  0  0  0  0  0
   -9.1511   -3.2818    0.0000 C   0  0  0  0  0  0  0  0  0  0  0  0
   -8.9672    0.3119    0.0000 C   0  0  0  0  0  0  0  0  0  0  0  0
  -10.4672    0.3119    0.0000 C   0  0  0  0  0  0  0  0  0  0  0  0
   -3.7500    1.2990    0.0000 C   0  0  0  0  0  0  0  0  0  0  0  0
   -3.0000    2.5981    0.0000 C   0  0  0  0  0  0  0  0  0  0  0  0
   -1.5000    2.5981    0.0000 C   0  0  0  0  0  0  0  0  0  0  0  0
   -0.7500    1.2990    0.0000 C   0  0  0  0  0  0  0  0  0  0  0  0
    0.7500    1.2990    0.0000 C   0  0  0  0  0  0  0  0  0  0  0  0
  1  2  1  0
  2  3  2  0
  2  4  1  0
  5  4  1  1
  5  6  1  0
  6  7  1  0
  8  7  1  6
  8  9  1  0
  9 10  1  1
 10 11  1  0
 11 12  1  0
 12 13  1  1
 12 14  1  0
 14 15  1  1
 15 16  1  0
 16 17  1  0
 17 18  1  0
 18 19  1  0
 19 20  2  0
 19 21  1  0
 17 22  1  6
 22 23  3  0
 14 24  1  0
 24 25  1  6
 25 26  1  0
 26 27  1  0
 27 28  2  0
 28  5  1  0
 27  8  1  0
 24  9  1  0
 17 12  1  0
M  END
$$$$
438435
     RDKit          2D

 29 33  0  0  0  0  0  0  0  0999 V2000
    5.2500   -1.2990    0.0000 C   0  0  0  0  0  0  0  0  0  0  0  0
    3.7500   -1.2990    0.0000 C   0  0  0  0  0  0  0  0  0  0  0  0
    3.0000   -2.5981    0.0000 O   0  0  0  0  0  0  0  0  0  0  0  0
    3.0000    0.0000    0.0000 O   0  0  0  0  0  0  0  0  0  0  0  0
    1.5000    0.0000    0.0000 C   0  0  0  0  0  0  0  0  0  0  0  0
    0.7500   -1.2990    0.0000 C   0  0  0  0  0  0  0  0  0  0  0  0
   -0.7500   -1.2990    0.0000 C   0  0  0  0  0  0  0  0  0  0  0  0
   -1.5000    0.0000    0.0000 C   0  0  0  0  0  0  0  0  0  0  0  0
   -2.2500   -1.2990    0.0000 C   0  0  0  0  0  0  0  0  0  0  0  0
   -3.0000    0.0000    0.0000 C   0  0  0  0  0  0  0  0  0  0  0  0
   -3.7500   -1.2990    0.0000 C   0  0  0  0  0  0  0  0  0  0  0  0
   -5.2500   -1.2990    0.0000 C   0  0  0  0  0  0  0  0  0  0  0  0
   -6.0000   -0.0000    0.0000 C   0  0  0  0  0  0  0  0  0  0  0  0
   -6.8817   -1.2135    0.0000 C   0  0  0  0  0  0  0  0  0  0  0  0
   -5.2500    1.2990    0.0000 C   0  0  0  0  0  0  0  0  0  0  0  0
   -6.2537    2.4138    0.0000 C   0  0  0  0  0  0  0  0  0  0  0  0
   -7.6240    1.8037    0.0000 C   0  0  0  0  0  0  0  0  0  0  0  0
   -7.4672    0.3119    0.0000 C   0  0  0  0  0  0  0  0  0  0  0  0
   -8.5819   -0.6918    0.0000 C   0  0  0  0  0  0  0  0  0  0  0  0
  -10.0085   -0.2283    0.0000 C   0  0  0  0  0  0  0  0  0  0  0  0
  -11.1232   -1.2320    0.0000 C   0  0  0  0  0  0  0  0  0  0  0  0
  -10.8114   -2.6992    0.0000 C   0  0  0  0  0  0  0  0  0  0  0  0
   -9.3848   -3.1627    0.0000 N   0  0  0  0  0  0  0  0  0  0  0  0
   -8.2701   -2.1590    0.0000 C   0  0  0  0  0  0  0  0  0  0  0  0
   -3.7500    1.2990    0.0000 C   0  0  0  0  0  0  0  0  0  0  0  0
   -3.0000    2.5981    0.0000 C   0  0  0  0  0  0  0  0  0  0  0  0
   -1.5000    2.5981    0.0000 C   0  0  0  0  0  0  0  0  0  0  0  0
   -0.7500    1.2990    0.0000 C   0  0  0  0  0  0  0  0  0  0  0  0
    0.7500    1.2990    0.0000 C   0  0  0  0  0  0  0  0  0  0  0  0
  1  2  1  0
  2  3  2  0
  2  4  1  0
  5  4  1  1
  5  6  1  0
  6  7  1  0
  7  8  1  0
  8  9  1  1
  8 10  1  0
 10 11  1  1
 11 12  1  0
 12 13  1  0
 13 14  1  1
 13 15  1  0
 15 16  1  1
 16 17  1  0
 17 18  2  0
 18 19  1  0
 19 20  2  0
 20 21  1  0
 21 22  2  0
 22 23  1  0
 23 24  2  0
 15 25  1  0
 25 26  1  6
 26 27  1  0
 27 28  2  0
 28 29  1  0
 29  5  1  0
 28  8  1  0
 25 10  1  0
 18 13  1  0
 24 19  1  0
M  END
$$$$
675097
     RDKit          2D

 25 28  0  0  0  0  0  0  0  0999 V2000
   -7.4177   -6.2842    0.0000 C   0  0  0  0  0  0  0  0  0  0  0  0
   -6.0474   -6.8943    0.0000 C   0  0  0  0  0  0  0  0  0  0  0  0
   -5.8906   -8.3861    0.0000 O   0  0  0  0  0  0  0  0  0  0  0  0
   -4.8338   -6.0126    0.0000 O   0  0  0  0  0  0  0  0  0  0  0  0
   -3.4635   -6.6227    0.0000 C   0  0  0  0  0  0  0  0  0  0  0  0
   -2.2500   -7.5044    0.0000 C   0  0  0  0  0  0  0  0  0  0  0  0
   -1.0365   -6.6227    0.0000 C   0  0  0  0  0  0  0  0  0  0  0  0
   -1.5000   -5.1962    0.0000 C   0  0  0  0  0  0  0  0  0  0  0  0
   -0.7500   -3.8971    0.0000 C   0  0  0  0  0  0  0  0  0  0  0  0
    0.7500   -3.8971    0.0000 C   0  0  0  0  0  0  0  0  0  0  0  0
    1.5000   -2.5981    0.0000 C   0  0  0  0  0  0  0  0  0  0  0  0
    0.7500   -1.2990    0.0000 C   0  0  0  0  0  0  0  0  0  0  0  0
    1.5000    0.0000    0.0000 C   0  0  0  0  0  0  0  0  0  0  0  0
    0.7500    1.2990    0.0000 C   0  0  0  0  0  0  0  0  0  0  0  0
    1.5000    2.5981    0.0000 O   0  0  0  0  0  0  0  0  0  0  0  0
   -0.7500    1.2990    0.0000 C   0  0  0  0  0  0  0  0  0  0  0  0
   -1.5000    0.0000    0.0000 C   0  0  0  0  0  0  0  0  0  0  0  0
   -0.7500   -1.2990    0.0000 C   0  0  0  0  0  0  0  0  0  0  0  0
   -1.5000   -2.5981    0.0000 C   0  0  0  0  0  0  0  0  0  0  0  0
   -3.0000   -2.5981    0.0000 C   0  0  0  0  0  0  0  0  0  0  0  0
   -3.7500   -3.8971    0.0000 C   0  0  0  0  0  0  0  0  0  0  0  0
   -3.0000   -5.1962    0.0000 C   0  0  0  0  0  0  0  0  0  0  0  0
   -4.4854   -4.9873    0.0000 C   0  0  0  0  0  0  0  0  0  0  0  0
   -4.2135   -7.9218    0.0000 C   0  0  0  0  0  0  0  0  0  0  0  0
   -4.9635   -9.2208    0.0000 C   0  0  0  0  0  0  0  0  0  0  0  0
  1  2  1  0
  2  3  2  0
  2  4  1  0
  4  5  1  0
  5  6  1  0
  6  7  1  0
  8  7  1  6
  8  9  1  0
  9 10  1  1
 10 11  1  0
 11 12  1  0
 12 13  2  0
 13 14  1  0
 14 15  2  0
 14 16  1  0
 16 17  1  0
 18 17  1  1
 18 19  1  0
 19 20  1  6
 20 21  1  0
 21 22  1  0
 22 23  1  6
  5 24  1  1
 24 25  3  0
 22  5  1  0
 22  8  1  0
 19  9  1  0
 18 12  1  0
M  END
$$$$
328201
     RDKit          2D

 29 33  0  0  0  0  0  0  0  0999 V2000
    4.5311    7.1244    0.0000 C   0  0  0  0  0  0  0  0  0  0  0  0
    3.0393    7.2812    0.0000 C   0  0  0  0  0  0  0  0  0  0  0  0
    2.4292    8.6515    0.0000 O   0  0  0  0  0  0  0  0  0  0  0  0
    2.1577    6.0676    0.0000 S   0  0  0  0  0  0  0  0  0  0  0  0
    0.6659    6.2244    0.0000 C   0  0  0  0  0  0  0  0  0  0  0  0
    0.0558    7.5947    0.0000 C   0  0  0  0  0  0  0  0  0  0  0  0
   -1.4360    7.7515    0.0000 C   0  0  0  0  0  0  0  0  0  0  0  0
   -2.0461    9.1218    0.0000 C   0  0  0  0  0  0  0  0  0  0  0  0
   -3.5379    9.2786    0.0000 C   0  0  0  0  0  0  0  0  0  0  0  0
   -4.1480   10.6490    0.0000 O   0  0  0  0  0  0  0  0  0  0  0  0
   -4.4196    8.0651    0.0000 C   0  0  0  0  0  0  0  0  0  0  0  0
   -3.8095    6.6948    0.0000 C   0  0  0  0  0  0  0  0  0  0  0  0
   -2.3177    6.5380    0.0000 C   0  0  0  0  0  0  0  0  0  0  0  0
   -3.1994    5.3245    0.0000 C   0  0  0  0  0  0  0  0  0  0  0  0
   -1.7076    5.1677    0.0000 C   0  0  0  0  0  0  0  0  0  0  0  0
   -2.5893    3.9542    0.0000 C   0  0  0  0  0  0  0  0  0  0  0  0
   -1.9792    2.5838    0.0000 C   0  0  0  0  0  0  0  0  0  0  0  0
   -0.4874    2.4271    0.0000 C   0  0  0  0  0  0  0  0  0  0  0  0
    0.9798    2.7389    0.0000 C   0  0  0  0  0  0  0  0  0  0  0  0
    0.3943    3.6406    0.0000 C   0  0  0  0  0  0  0  0  0  0  0  0
    1.8209    3.1771    0.0000 C   0  0  0  0  0  0  0  0  0  0  0  0
    1.8209    1.6771    0.0000 C   0  0  0  0  0  0  0  0  0  0  0  0
    0.3943    1.2135    0.0000 C   0  0  0  0  0  0  0  0  0  0  0  0
    1.2760    0.0000    0.0000 C   0  0  0  0  0  0  0  0  0  0  0  0
    0.3943   -1.2135    0.0000 C   0  0  0  0  0  0  0  0  0  0  0  0
   -1.0323   -0.7500    0.0000 C   0  0  0  0  0  0  0  0  0  0  0  0
   -2.2458   -1.6317    0.0000 O   0  0  0  0  0  0  0  0  0  0  0  0
   -1.0323    0.7500    0.0000 O   0  0  0  0  0  0  0  0  0  0  0  0
   -0.2158    5.0109    0.0000 C   0  0  0  0  0  0  0  0  0  0  0  0
  1  2  1  0
  2  3  2  0
  2  4  1  0
  5  4  1  1
  5  6  1  0
  6  7  1  0
  7  8  2  0
  8  9  1  0
  9 10  2  0
  9 11  1  0
 11 12  1  0
 12 13  1  0
 13 14  1  6
 13 15  1  0
 15 16  1  6
 16 17  1  0
 17 18  1  0
 18 19  1  6
 18 20  1  0
 20 21  1  6
 21 22  1  0
 23 22  1  6
 23 24  1  0
 24 25  1  0
 25 26  1  0
 26 27  2  0
 26 28  1  0
 20 29  1  0
 29  5  1  1
 13  7  1  0
 29 15  1  0
 23 18  1  0
 28 23  1  0
M  END
$$$$
674804
     RDKit          2D

 23 26  0  0  0  0  0  0  0  0999 V2000
   -5.2020   -8.5535    0.0000 C   0  0  0  0  0  0  0  0  0  0  0  0
   -4.8901   -7.0863    0.0000 C   0  0  0  0  0  0  0  0  0  0  0  0
   -6.0048   -6.0826    0.0000 O   0  0  0  0  0  0  0  0  0  0  0  0
   -3.4635   -6.6227    0.0000 C   0  0  0  0  0  0  0  0  0  0  0  0
   -2.2500   -7.5044    0.0000 C   0  0  0  0  0  0  0  0  0  0  0  0
   -1.0365   -6.6227    0.0000 C   0  0  0  0  0  0  0  0  0  0  0  0
   -1.5000   -5.1962    0.0000 C   0  0  0  0  0  0  0  0  0  0  0  0
   -0.7500   -3.8971    0.0000 C   0  0  0  0  0  0  0  0  0  0  0  0
    0.7500   -3.8971    0.0000 C   0  0  0  0  0  0  0  0  0  0  0  0
    1.5000   -2.5981    0.0000 C   0  0  0  0  0  0  0  0  0  0  0  0
    0.7500   -1.2990    0.0000 C   0  0  0  0  0  0  0  0  0  0  0  0
    1.5000    0.0000    0.0000 C   0  0  0  0  0  0  0  0  0  0  0  0
    0.7500    1.2990    0.0000 C   0  0  0  0  0  0  0  0  0  0  0  0
    1.5000    2.5981    0.0000 O   0  0  0  0  0  0  0  0  0  0  0  0
   -0.7500    1.2990    0.0000 C   0  0  0  0  0  0  0  0  0  0  0  0
   -1.5000    0.0000    0.0000 C   0  0  0  0  0  0  0  0  0  0  0  0
   -0.7500   -1.2990    0.0000 C   0  0  0  0  0  0  0  0  0  0  0  0
   -2.2500   -1.2990    0.0000 C   0  0  0  0  0  0  0  0  0  0  0  0
   -1.5000   -2.5981    0.0000 C   0  0  0  0  0  0  0  0  0  0  0  0
   -3.0000   -2.5981    0.0000 C   0  0  0  0  0  0  0  0  0  0  0  0
   -3.7500   -3.8971    0.0000 C   0  0  0  0  0  0  0  0  0  0  0  0
   -3.0000   -5.1962    0.0000 C   0  0  0  0  0  0  0  0  0  0  0  0
   -4.4918   -5.3529    0.0000 C   0  0  0  0  0  0  0  0  0  0  0  0
  1  2  1  0
  2  3  2  0
  4  2  1  6
  4  5  1  0
  5  6  1  0
  7  6  1  6
  7  8  1  0
  8  9  1  1
  9 10  2  0
 10 11  1  0
 11 12  2  0
 12 13  1  0
 13 14  2  0
 13 15  1  0
 15 16  1  0
 16 17  1  0
 17 18  1  1
 17 19  1  0
 19 20  1  1
 20 21  1  0
 21 22  1  0
 22 23  1  6
 22  4  1  0
 22  7  1  0
 19  8  1  0
 17 11  1  0
M  END
$$$$
12825
     RDKit          2D

 23 26  0  0  0  0  0  0  0  0999 V2000
   -5.2020   -8.5535    0.0000 C   0  0  0  0  0  0  0  0  0  0  0  0
   -4.8901   -7.0863    0.0000 C   0  0  0  0  0  0  0  0  0  0  0  0
   -6.0048   -6.0826    0.0000 O   0  0  0  0  0  0  0  0  0  0  0  0
   -3.4635   -6.6227    0.0000 C   0  0  0  0  0  0  0  0  0  0  0  0
   -2.2500   -7.5044    0.0000 C   0  0  0  0  0  0  0  0  0  0  0  0
   -1.0365   -6.6227    0.0000 C   0  0  0  0  0  0  0  0  0  0  0  0
   -1.5000   -5.1962    0.0000 C   0  0  0  0  0  0  0  0  0  0  0  0
   -0.7500   -3.8971    0.0000 C   0  0  0  0  0  0  0  0  0  0  0  0
    0.7500   -3.8971    0.0000 C   0  0  0  0  0  0  0  0  0  0  0  0
    1.5000   -2.5981    0.0000 C   0  0  0  0  0  0  0  0  0  0  0  0
    0.7500   -1.2990    0.0000 C   0  0  0  0  0  0  0  0  0  0  0  0
    1.5000    0.0000    0.0000 C   0  0  0  0  0  0  0  0  0  0  0  0
    0.7500    1.2990    0.0000 C   0  0  0  0  0  0  0  0  0  0  0  0
    1.5000    2.5981    0.0000 O   0  0  0  0  0  0  0  0  0  0  0  0
   -0.7500    1.2990    0.0000 C   0  0  0  0  0  0  0  0  0  0  0  0
   -1.5000    0.0000    0.0000 C   0  0  0  0  0  0  0  0  0  0  0  0
   -0.7500   -1.2990    0.0000 C   0  0  0  0  0  0  0  0  0  0  0  0
   -2.2500   -1.2990    0.0000 C   0  0  0  0  0  0  0  0  0  0  0  0
   -1.5000   -2.5981    0.0000 C   0  0  0  0  0  0  0  0  0  0  0  0
   -3.0000   -2.5981    0.0000 C   0  0  0  0  0  0  0  0  0  0  0  0
   -3.7500   -3.8971    0.0000 C   0  0  0  0  0  0  0  0  0  0  0  0
   -3.0000   -5.1962    0.0000 C   0  0  0  0  0  0  0  0  0  0  0  0
   -4.4918   -5.3529    0.0000 C   0  0  0  0  0  0  0  0  0  0  0  0
  1  2  1  0
  2  3  2  0
  4  2  1  6
  4  5  1  0
  5  6  1  0
  7  6  1  6
  7  8  1  0
  8  9  1  1
  9 10  1  0
 10 11  1  0
 11 12  2  0
 12 13  1  0
 13 14  2  0
 13 15  1  0
 15 16  1  0
 16 17  1  0
 17 18  1  6
 17 19  1  0
 19 20  1  6
 20 21  1  0
 21 22  1  0
 22 23  1  6
 22  4  1  0
 22  7  1  0
 19  8  1  0
 17 11  1  0
M  END
$$$$
16308
     RDKit          2D

 18 19  0  0  0  0  0  0  0  0999 V2000
    3.7500   -1.2990    0.0000 C   0  0  0  0  0  0  0  0  0  0  0  0
    3.0000    0.0000    0.0000 C   0  0  0  0  0  0  0  0  0  0  0  0
    3.7500    1.2990    0.0000 C   0  0  0  0  0  0  0  0  0  0  0  0
    3.0000    2.5981    0.0000 O   0  0  0  0  0  0  0  0  0  0  0  0
    5.2500    1.2990    0.0000 O   0  0  0  0  0  0  0  0  0  0  0  0
    1.5000    0.0000    0.0000 C   0  0  0  0  0  0  0  0  0  0  0  0
    0.7500   -1.2990    0.0000 C   0  0  0  0  0  0  0  0  0  0  0  0
   -0.7500   -1.2990    0.0000 C   0  0  0  0  0  0  0  0  0  0  0  0
   -1.5000    0.0000    0.0000 C   0  0  0  0  0  0  0  0  0  0  0  0
   -0.7500    1.2990    0.0000 C   0  0  0  0  0  0  0  0  0  0  0  0
   -1.5000    2.5981    0.0000 F   0  0  0  0  0  0  0  0  0  0  0  0
    0.7500    1.2990    0.0000 C   0  0  0  0  0  0  0  0  0  0  0  0
   -3.0000    0.0000    0.0000 C   0  0  0  0  0  0  0  0  0  0  0  0
   -3.7500    1.2990    0.0000 C   0  0  0  0  0  0  0  0  0  0  0  0
   -5.2500    1.2990    0.0000 C   0  0  0  0  0  0  0  0  0  0  0  0
   -6.0000    0.0000    0.0000 C   0  0  0  0  0  0  0  0  0  0  0  0
   -5.2500   -1.2990    0.0000 C   0  0  0  0  0  0  0  0  0  0  0  0
   -3.7500   -1.2990    0.0000 C   0  0  0  0  0  0  0  0  0  0  0  0
  1  2  1  0
  2  3  1  0
  3  4  2  0
  3  5  1  0
  2  6  1  0
  6  7  2  0
  7  8  1  0
  8  9  2  0
  9 10  1  0
 10 11  1  0
 10 12  2  0
  9 13  1  0
 13 14  2  0
 14 15  1  0
 15 16  2  0
 16 17  1  0
 17 18  2  0
 12  6  1  0
 18 13  1  0
M  END
$$$$
264453
     RDKit          2D

 19 21  0  0  0  0  0  0  0  0999 V2000
    3.7500   -1.2990    0.0000 C   0  0  0  0  0  0  0  0  0  0  0  0
    3.0000    0.0000    0.0000 C   0  0  0  0  0  0  0  0  0  0  0  0
    3.7500    1.2990    0.0000 C   0  0  0  0  0  0  0  0  0  0  0  0
    3.0000    2.5981    0.0000 O   0  0  0  0  0  0  0  0  0  0  0  0
    5.2500    1.2990    0.0000 O   0  0  0  0  0  0  0  0  0  0  0  0
    1.5000    0.0000    0.0000 C   0  0  0  0  0  0  0  0  0  0  0  0
    0.7500   -1.2990    0.0000 C   0  0  0  0  0  0  0  0  0  0  0  0
   -0.7500   -1.2990    0.0000 C   0  0  0  0  0  0  0  0  0  0  0  0
   -1.5000    0.0000    0.0000 C   0  0  0  0  0  0  0  0  0  0  0  0
   -0.7500    1.2990    0.0000 C   0  0  0  0  0  0  0  0  0  0  0  0
    0.7500    1.2990    0.0000 C   0  0  0  0  0  0  0  0  0  0  0  0
   -1.7537    2.4138    0.0000 N   0  0  0  0  0  0  0  0  0  0  0  0
   -3.1240    1.8037    0.0000 C   0  0  0  0  0  0  0  0  0  0  0  0
   -4.4943    2.4138    0.0000 C   0  0  0  0  0  0  0  0  0  0  0  0
   -5.7079    1.5321    0.0000 C   0  0  0  0  0  0  0  0  0  0  0  0
   -5.5511    0.0403    0.0000 C   0  0  0  0  0  0  0  0  0  0  0  0
   -6.7646   -0.8414    0.0000 Cl  0  0  0  0  0  0  0  0  0  0  0  0
   -4.1807   -0.5698    0.0000 C   0  0  0  0  0  0  0  0  0  0  0  0
   -2.9672    0.3119    0.0000 C   0  0  0  0  0  0  0  0  0  0  0  0
  1  2  1  0
  2  3  1  0
  3  4  2  0
  3  5  1  0
  2  6  1  0
  6  7  2  0
  7  8  1  0
  8  9  2  0
  9 10  1  0
 10 11  2  0
 10 12  1  0
 12 13  1  0
 13 14  2  0
 14 15  1  0
 15 16  2  0
 16 17  1  0
 16 18  1  0
 18 19  2  0
 11  6  1  0
 19  9  1  0
 19 13  1  0
M  END
$$$$
16591
     RDKit          2D

 19 20  0  0  0  0  0  0  0  0999 V2000
    3.7500   -1.2990    0.0000 C   0  0  0  0  0  0  0  0  0  0  0  0
    3.0000    0.0000    0.0000 C   0  0  0  0  0  0  0  0  0  0  0  0
    3.7500    1.2990    0.0000 C   0  0  0  0  0  0  0  0  0  0  0  0
    3.0000    2.5981    0.0000 O   0  0  0  0  0  0  0  0  0  0  0  0
    5.2500    1.2990    0.0000 O   0  0  0  0  0  0  0  0  0  0  0  0
    1.5000    0.0000    0.0000 C   0  0  0  0  0  0  0  0  0  0  0  0
    0.7500   -1.2990    0.0000 C   0  0  0  0  0  0  0  0  0  0  0  0
   -0.7500   -1.2990    0.0000 C   0  0  0  0  0  0  0  0  0  0  0  0
   -1.5000    0.0000    0.0000 C   0  0  0  0  0  0  0  0  0  0  0  0
   -0.7500    1.2990    0.0000 C   0  0  0  0  0  0  0  0  0  0  0  0
    0.7500    1.2990    0.0000 C   0  0  0  0  0  0  0  0  0  0  0  0
   -1.5000    2.5981    0.0000 C   0  0  0  0  0  0  0  0  0  0  0  0
   -3.0000    2.5981    0.0000 O   0  0  0  0  0  0  0  0  0  0  0  0
   -0.7500    3.8971    0.0000 C   0  0  0  0  0  0  0  0  0  0  0  0
    0.7500    3.8971    0.0000 C   0  0  0  0  0  0  0  0  0  0  0  0
    1.5000    5.1962    0.0000 C   0  0  0  0  0  0  0  0  0  0  0  0
    0.7500    6.4952    0.0000 C   0  0  0  0  0  0  0  0  0  0  0  0
   -0.7500    6.4952    0.0000 C   0  0  0  0  0  0  0  0  0  0  0  0
   -1.5000    5.1962    0.0000 C   0  0  0  0  0  0  0  0  0  0  0  0
  1  2  1  0
  2  3  1  0
  3  4  2  0
  3  5  1  0
  2  6  1  0
  6  7  2  0
  7  8  1  0
  8  9  2  0
  9 10  1  0
 10 11  2  0
 10 12  1  0
 12 13  2  0
 12 14  1  0
 14 15  2  0
 15 16  1  0
 16 17  2  0
 17 18  1  0
 18 19  2  0
 11  6  1  0
 19 14  1  0
M  END
$$$$
255534
     RDKit          2D

 18 19  0  0  0  0  0  0  0  0999 V2000
    3.7500   -1.2990    0.0000 C   0  0  0  0  0  0  0  0  0  0  0  0
    3.0000    0.0000    0.0000 C   0  0  0  0  0  0  0  0  0  0  0  0
    3.7500    1.2990    0.0000 C   0  0  0  0  0  0  0  0  0  0  0  0
    3.0000    2.5981    0.0000 O   0  0  0  0  0  0  0  0  0  0  0  0
    5.2500    1.2990    0.0000 O   0  0  0  0  0  0  0  0  0  0  0  0
    1.5000    0.0000    0.0000 C   0  0  0  0  0  0  0  0  0  0  0  0
    0.7500   -1.2990    0.0000 C   0  0  0  0  0  0  0  0  0  0  0  0
   -0.7500   -1.2990    0.0000 C   0  0  0  0  0  0  0  0  0  0  0  0
   -1.5000    0.0000    0.0000 C   0  0  0  0  0  0  0  0  0  0  0  0
   -0.7500    1.2990    0.0000 C   0  0  0  0  0  0  0  0  0  0  0  0
   -1.5000    2.5981    0.0000 O   0  0  0  0  0  0  0  0  0  0  0  0
   -0.7500    3.8971    0.0000 C   0  0  0  0  0  0  0  0  0  0  0  0
    0.7500    3.8971    0.0000 C   0  0  0  0  0  0  0  0  0  0  0  0
    1.5000    5.1962    0.0000 C   0  0  0  0  0  0  0  0  0  0  0  0
    0.7500    6.4952    0.0000 C   0  0  0  0  0  0  0  0  0  0  0  0
   -0.7500    6.4952    0.0000 C   0  0  0  0  0  0  0  0  0  0  0  0
   -1.5000    5.1962    0.0000 C   0  0  0  0  0  0  0  0  0  0  0  0
    0.7500    1.2990    0.0000 C   0  0  0  0  0  0  0  0  0  0  0  0
  1  2  1  0
  2  3  1  0
  3  4  2  0
  3  5  1  0
  2  6  1  0
  6  7  2  0
  7  8  1  0
  8  9  2  0
  9 10  1  0
 10 11  1  0
 11 12  1  0
 12 13  2  0
 13 14  1  0
 14 15  2  0
 15 16  1  0
 16 17  2  0
 10 18  2  0
 18  6  1  0
 17 12  1  0
M  END
$$$$
337366
     RDKit          2D

 22 23  0  0  0  0  0  0  0  0999 V2000
    3.0000    1.5000    0.0000 C   0  0  0  0  0  0  0  0  0  0  0  0
    3.0000    0.0000    0.0000 C   0  0  0  0  0  0  0  0  0  0  0  0
    3.0000   -1.5000    0.0000 C   0  0  0  0  0  0  0  0  0  0  0  0
    4.5000    0.0000    0.0000 C   0  0  0  0  0  0  0  0  0  0  0  0
    6.0000   -0.0000    0.0000 N   0  0  0  0  0  0  0  0  0  0  0  0
    1.5000    0.0000    0.0000 C   0  0  0  0  0  0  0  0  0  0  0  0
    0.7500   -1.2990    0.0000 C   0  0  0  0  0  0  0  0  0  0  0  0
   -0.7500   -1.2990    0.0000 C   0  0  0  0  0  0  0  0  0  0  0  0
   -1.5000   -2.5981    0.0000 C   0  0  0  0  0  0  0  0  0  0  0  0
   -3.0000   -2.5981    0.0000 N   0  0  0  0  0  0  0  0  0  0  0  0
   -3.8817   -3.8116    0.0000 C   0  0  0  0  0  0  0  0  0  0  0  0
   -5.3083   -3.3481    0.0000 N   0  0  0  0  0  0  0  0  0  0  0  0
   -5.3083   -1.8481    0.0000 C   0  0  0  0  0  0  0  0  0  0  0  0
   -3.8817   -1.3846    0.0000 N   0  0  0  0  0  0  0  0  0  0  0  0
   -1.5000    0.0000    0.0000 C   0  0  0  0  0  0  0  0  0  0  0  0
   -0.7500    1.2990    0.0000 C   0  0  0  0  0  0  0  0  0  0  0  0
    0.7500    1.2990    0.0000 C   0  0  0  0  0  0  0  0  0  0  0  0
   -1.5000    2.5981    0.0000 C   0  0  0  0  0  0  0  0  0  0  0  0
   -2.7990    1.8481    0.0000 C   0  0  0  0  0  0  0  0  0  0  0  0
   -0.2010    3.3481    0.0000 C   0  0  0  0  0  0  0  0  0  0  0  0
   -2.2500    3.8971    0.0000 C   0  0  0  0  0  0  0  0  0  0  0  0
   -3.0000    5.1962    0.0000 N   0  0  0  0  0  0  0  0  0  0  0  0
  1  2  1  0
  2  3  1  0
  2  4  1  0
  4  5  3  0
  2  6  1  0
  6  7  2  0
  7  8  1  0
  8  9  1  0
  9 10  1  0
 10 11  1  0
 11 12  2  0
 12 13  1  0
 13 14  2  0
  8 15  2  0
 15 16  1  0
 16 17  2  0
 16 18  1  0
 18 19  1  0
 18 20  1  0
 18 21  1  0
 21 22  3  0
 17  6  1  0
 14 10  1  0
M  END
$$$$
86284
     RDKit          2D

 17 18  0  0  0  0  0  0  0  0999 V2000
    2.0490   -4.6471    0.0000 C   0  0  0  0  0  0  0  0  0  0  0  0
    0.7500   -3.8971    0.0000 C   0  0  0  0  0  0  0  0  0  0  0  0
   -0.5490   -3.1471    0.0000 C   0  0  0  0  0  0  0  0  0  0  0  0
    1.5000   -2.5981    0.0000 C   0  0  0  0  0  0  0  0  0  0  0  0
    3.0000   -2.5981    0.0000 O   0  0  0  0  0  0  0  0  0  0  0  0
    0.7500   -1.2990    0.0000 C   0  0  0  0  0  0  0  0  0  0  0  0
    1.5000    0.0000    0.0000 C   0  0  0  0  0  0  0  0  0  0  0  0
    0.7500    1.2990    0.0000 C   0  0  0  0  0  0  0  0  0  0  0  0
   -0.7500    1.2990    0.0000 C   0  0  0  0  0  0  0  0  0  0  0  0
   -1.5000    0.0000    0.0000 N   0  0  0  0  0  0  0  0  0  0  0  0
   -0.7500   -1.2990    0.0000 C   0  0  0  0  0  0  0  0  0  0  0  0
   -0.0000   -5.1962    0.0000 C   0  0  0  0  0  0  0  0  0  0  0  0
   -1.5000   -5.1962    0.0000 C   0  0  0  0  0  0  0  0  0  0  0  0
   -2.2500   -6.4952    0.0000 C   0  0  0  0  0  0  0  0  0  0  0  0
   -1.5000   -7.7942    0.0000 C   0  0  0  0  0  0  0  0  0  0  0  0
   -0.0000   -7.7942    0.0000 N   0  0  0  0  0  0  0  0  0  0  0  0
    0.7500   -6.4952    0.0000 C   0  0  0  0  0  0  0  0  0  0  0  0
  1  2  1  0
  2  3  1  0
  2  4  1  0
  4  5  2  0
  4  6  1  0
  6  7  2  0
  7  8  1  0
  8  9  2  0
  9 10  1  0
 10 11  2  0
  2 12  1  0
 12 13  2  0
 13 14  1  0
 14 15  2  0
 15 16  1  0
 16 17  2  0
 11  6  1  0
 17 12  1  0
M  END
$$$$
81683
     RDKit          2D

 37 40  0  0  0  0  0  0  0  0999 V2000
    3.0000    1.5000    0.0000 C   0  0  0  0  0  0  0  0  0  0  0  0
    3.0000    0.0000    0.0000 C   0  0  0  0  0  0  0  0  0  0  0  0
    3.0000   -1.5000    0.0000 C   0  0  0  0  0  0  0  0  0  0  0  0
    4.5000    0.0000    0.0000 C   0  0  0  0  0  0  0  0  0  0  0  0
    5.2500   -1.2990    0.0000 O   0  0  0  0  0  0  0  0  0  0  0  0
    5.2500    1.2990    0.0000 O   0  0  0  0  0  0  0  0  0  0  0  0
    1.5000    0.0000    0.0000 C   0  0  0  0  0  0  0  0  0  0  0  0
    0.7500   -1.2990    0.0000 C   0  0  0  0  0  0  0  0  0  0  0  0
   -0.7500   -1.2990    0.0000 C   0  0  0  0  0  0  0  0  0  0  0  0
   -1.5000    0.0000    0.0000 C   0  0  0  0  0  0  0  0  0  0  0  0
   -0.7500    1.2990    0.0000 C   0  0  0  0  0  0  0  0  0  0  0  0
    0.7500    1.2990    0.0000 C   0  0  0  0  0  0  0  0  0  0  0  0
   -3.0000    0.0000    0.0000 C   0  0  0  0  0  0  0  0  0  0  0  0
   -3.7500   -1.2990    0.0000 O   0  0  0  0  0  0  0  0  0  0  0  0
   -3.7500    1.2990    0.0000 C   0  0  0  0  0  0  0  0  0  0  0  0
   -5.2500    1.2990    0.0000 C   0  0  0  0  0  0  0  0  0  0  0  0
   -6.0000    2.5981    0.0000 C   0  0  0  0  0  0  0  0  0  0  0  0
   -7.5000    2.5981    0.0000 N   0  0  0  0  0  0  0  0  0  0  0  0
   -8.2500    3.8971    0.0000 C   0  0  0  0  0  0  0  0  0  0  0  0
   -9.7500    3.8971    0.0000 C   0  0  0  0  0  0  0  0  0  0  0  0
  -10.5000    2.5981    0.0000 C   0  0  0  0  0  0  0  0  0  0  0  0
   -9.7500    1.2990    0.0000 C   0  0  0  0  0  0  0  0  0  0  0  0
   -8.2500    1.2990    0.0000 C   0  0  0  0  0  0  0  0  0  0  0  0
  -12.0000    2.5981    0.0000 C   0  0  0  0  0  0  0  0  0  0  0  0
  -12.0000    1.0981    0.0000 O   0  0  0  0  0  0  0  0  0  0  0  0
  -13.5000    2.5981    0.0000 C   0  0  0  0  0  0  0  0  0  0  0  0
  -14.2500    3.8971    0.0000 C   0  0  0  0  0  0  0  0  0  0  0  0
  -15.7500    3.8971    0.0000 C   0  0  0  0  0  0  0  0  0  0  0  0
  -16.5000    2.5981    0.0000 C   0  0  0  0  0  0  0  0  0  0  0  0
  -15.7500    1.2990    0.0000 C   0  0  0  0  0  0  0  0  0  0  0  0
  -14.2500    1.2990    0.0000 C   0  0  0  0  0  0  0  0  0  0  0  0
  -12.0000    4.0981    0.0000 C   0  0  0  0  0  0  0  0  0  0  0  0
  -10.7010    4.8481    0.0000 C   0  0  0  0  0  0  0  0  0  0  0  0
  -10.7010    6.3481    0.0000 C   0  0  0  0  0  0  0  0  0  0  0  0
  -12.0000    7.0981    0.0000 C   0  0  0  0  0  0  0  0  0  0  0  0
  -13.2990    6.3481    0.0000 C   0  0  0  0  0  0  0  0  0  0  0  0
  -13.2990    4.8481    0.0000 C   0  0  0  0  0  0  0  0  0  0  0  0
  1  2  1  0
  2  3  1  0
  2  4  1  0
  4  5  2  0
  4  6  1  0
  2  7  1  0
  7  8  2  0
  8  9  1  0
  9 10  2  0
 10 11  1  0
 11 12  2  0
 10 13  1  0
 13 14  1  0
 13 15  1  0
 15 16  1  0
 16 17  1  0
 17 18  1  0
 18 19  1  0
 19 20  1  0
 20 21  1  0
 21 22  1  0
 22 23  1  0
 21 24  1  0
 24 25  1  0
 24 26  1  0
 26 27  2  0
 27 28  1  0
 28 29  2  0
 29 30  1  0
 30 31  2  0
 24 32  1  0
 32 33  2  0
 33 34  1  0
 34 35  2  0
 35 36  1  0
 36 37  2  0
 12  7  1  0
 23 18  1  0
 31 26  1  0
 37 32  1  0
M  END
$$$$
83515
     RDKit          2D

 34 35  0  0  0  0  0  0  0  0999 V2000
   -8.1604  -14.0234    0.0000 C   0  0  0  0  0  0  0  0  0  0  0  0
   -6.7338  -13.5598    0.0000 C   0  0  0  0  0  0  0  0  0  0  0  0
   -5.3072  -13.0963    0.0000 C   0  0  0  0  0  0  0  0  0  0  0  0
   -6.2703  -14.9864    0.0000 C   0  0  0  0  0  0  0  0  0  0  0  0
   -7.1974  -12.1332    0.0000 C   0  0  0  0  0  0  0  0  0  0  0  0
   -8.6646  -11.8214    0.0000 O   0  0  0  0  0  0  0  0  0  0  0  0
   -6.1937  -11.0185    0.0000 O   0  0  0  0  0  0  0  0  0  0  0  0
   -6.6572   -9.5919    0.0000 C   0  0  0  0  0  0  0  0  0  0  0  0
   -5.6535   -8.4772    0.0000 O   0  0  0  0  0  0  0  0  0  0  0  0
   -6.1170   -7.0506    0.0000 P   0  0  0  0  0  0  0  0  0  0  0  0
   -7.5436   -7.5142    0.0000 O   0  0  0  0  0  0  0  0  0  0  0  0
   -4.6904   -6.5871    0.0000 C   0  0  0  0  0  0  0  0  0  0  0  0
   -4.3786   -5.1199    0.0000 O   0  0  0  0  0  0  0  0  0  0  0  0
   -2.9520   -4.6564    0.0000 C   0  0  0  0  0  0  0  0  0  0  0  0
   -2.6401   -3.1891    0.0000 C   0  0  0  0  0  0  0  0  0  0  0  0
   -1.2135   -2.7256    0.0000 N   0  0  0  0  0  0  0  0  0  0  0  0
   -0.0000   -3.6073    0.0000 C   0  0  0  0  0  0  0  0  0  0  0  0
    1.2135   -2.7256    0.0000 N   0  0  0  0  0  0  0  0  0  0  0  0
    0.7500   -1.2990    0.0000 C   0  0  0  0  0  0  0  0  0  0  0  0
    1.5000    0.0000    0.0000 C   0  0  0  0  0  0  0  0  0  0  0  0
    3.0000    0.0000    0.0000 N   0  0  0  0  0  0  0  0  0  0  0  0
    0.7500    1.2990    0.0000 N   0  0  0  0  0  0  0  0  0  0  0  0
   -0.7500    1.2990    0.0000 C   0  0  0  0  0  0  0  0  0  0  0  0
   -1.5000    0.0000    0.0000 N   0  0  0  0  0  0  0  0  0  0  0  0
   -0.7500   -1.2990    0.0000 C   0  0  0  0  0  0  0  0  0  0  0  0
   -6.5805   -5.6241    0.0000 O   0  0  0  0  0  0  0  0  0  0  0  0
   -8.0478   -5.3122    0.0000 C   0  0  0  0  0  0  0  0  0  0  0  0
   -8.5113   -3.8856    0.0000 O   0  0  0  0  0  0  0  0  0  0  0  0
   -9.9785   -3.5737    0.0000 C   0  0  0  0  0  0  0  0  0  0  0  0
  -10.9822   -4.6885    0.0000 O   0  0  0  0  0  0  0  0  0  0  0  0
  -10.4420   -2.1472    0.0000 C   0  0  0  0  0  0  0  0  0  0  0  0
  -11.8686   -2.6107    0.0000 C   0  0  0  0  0  0  0  0  0  0  0  0
   -9.0154   -1.6836    0.0000 C   0  0  0  0  0  0  0  0  0  0  0  0
  -10.9056   -0.7206    0.0000 C   0  0  0  0  0  0  0  0  0  0  0  0
  1  2  1  0
  2  3  1  0
  2  4  1  0
  2  5  1  0
  5  6  2  0
  5  7  1  0
  7  8  1  0
  8  9  1  0
  9 10  1  0
 10 11  2  0
 10 12  1  0
 12 13  1  0
 13 14  1  0
 14 15  1  0
 15 16  1  0
 16 17  1  0
 17 18  2  0
 18 19  1  0
 19 20  2  0
 20 21  1  0
 20 22  1  0
 22 23  2  0
 23 24  1  0
 24 25  2  0
 10 26  1  0
 26 27  1  0
 27 28  1  0
 28 29  1  0
 29 30  2  0
 29 31  1  0
 31 32  1  0
 31 33  1  0
 31 34  1  0
 25 16  1  0
 25 19  1  0
M  END
$$$$
1331852
     RDKit          2D

 29 31  0  0  0  0  0  0  0  0999 V2000
   -7.2990   -9.6423    0.0000 C   0  0  0  0  0  0  0  0  0  0  0  0
   -6.0000  -10.3923    0.0000 C   0  0  0  0  0  0  0  0  0  0  0  0
   -4.7010  -11.1423    0.0000 C   0  0  0  0  0  0  0  0  0  0  0  0
   -6.7500  -11.6913    0.0000 C   0  0  0  0  0  0  0  0  0  0  0  0
   -5.2500   -9.0933    0.0000 C   0  0  0  0  0  0  0  0  0  0  0  0
   -6.0000   -7.7942    0.0000 C   0  0  0  0  0  0  0  0  0  0  0  0
   -5.2500   -6.4952    0.0000 C   0  0  0  0  0  0  0  0  0  0  0  0
   -3.7500   -6.4952    0.0000 C   0  0  0  0  0  0  0  0  0  0  0  0
   -3.0000   -5.1962    0.0000 N   0  0  0  0  0  0  0  0  0  0  0  0
   -1.5000   -5.1962    0.0000 C   0  0  0  0  0  0  0  0  0  0  0  0
   -0.7500   -6.4952    0.0000 O   0  0  0  0  0  0  0  0  0  0  0  0
   -0.7500   -3.8971    0.0000 C   0  0  0  0  0  0  0  0  0  0  0  0
    0.7500   -3.8971    0.0000 C   0  0  0  0  0  0  0  0  0  0  0  0
    1.5000   -2.5981    0.0000 N   0  0  0  0  0  0  0  0  0  0  0  0
    0.7500   -1.2990    0.0000 C   0  0  0  0  0  0  0  0  0  0  0  0
    1.5000    0.0000    0.0000 C   0  0  0  0  0  0  0  0  0  0  0  0
    0.7500    1.2990    0.0000 C   0  0  0  0  0  0  0  0  0  0  0  0
   -0.7500    1.2990    0.0000 C   0  0  0  0  0  0  0  0  0  0  0  0
   -1.5000    0.0000    0.0000 C   0  0  0  0  0  0  0  0  0  0  0  0
   -0.7500   -1.2990    0.0000 C   0  0  0  0  0  0  0  0  0  0  0  0
   -1.5000   -2.5981    0.0000 C   0  0  0  0  0  0  0  0  0  0  0  0
   -3.0000   -2.5981    0.0000 O   0  0  0  0  0  0  0  0  0  0  0  0
   -3.0000   -7.7942    0.0000 C   0  0  0  0  0  0  0  0  0  0  0  0
   -3.7500   -9.0933    0.0000 C   0  0  0  0  0  0  0  0  0  0  0  0
   -3.0000  -10.3923    0.0000 O   0  0  0  0  0  0  0  0  0  0  0  0
   -6.0000   -5.1962    0.0000 C   0  0  0  0  0  0  0  0  0  0  0  0
   -7.2990   -5.9462    0.0000 C   0  0  0  0  0  0  0  0  0  0  0  0
   -4.7010   -4.4462    0.0000 C   0  0  0  0  0  0  0  0  0  0  0  0
   -6.7500   -3.8971    0.0000 C   0  0  0  0  0  0  0  0  0  0  0  0
  1  2  1  0
  2  3  1  0
  2  4  1  0
  2  5  1  0
  5  6  2  0
  6  7  1  0
  7  8  2  0
  8  9  1  0
  9 10  1  0
 10 11  2  0
 10 12  1  0
 12 13  2  0
 13 14  1  0
 14 15  1  0
 15 16  2  0
 16 17  1  0
 17 18  2  0
 18 19  1  0
 19 20  2  0
 20 21  1  0
 21 22  2  0
  8 23  1  0
 23 24  2  0
 24 25  1  0
  7 26  1  0
 26 27  1  0
 26 28  1  0
 26 29  1  0
 24  5  1  0
 21 12  1  0
 20 15  1  0
M  END
$$$$
22641
     RDKit          2D

 35 36  0  0  0  0  0  0  0  0999 V2000
   -2.7990    1.8481    0.0000 C   0  0  0  0  0  0  0  0  0  0  0  0
   -1.5000    2.5981    0.0000 C   0  0  0  0  0  0  0  0  0  0  0  0
   -0.2010    3.3481    0.0000 C   0  0  0  0  0  0  0  0  0  0  0  0
   -2.2500    3.8971    0.0000 C   0  0  0  0  0  0  0  0  0  0  0  0
   -0.7500    1.2990    0.0000 C   0  0  0  0  0  0  0  0  0  0  0  0
   -1.5000    0.0000    0.0000 C   0  0  0  0  0  0  0  0  0  0  0  0
   -0.7500   -1.2990    0.0000 C   0  0  0  0  0  0  0  0  0  0  0  0
   -1.5000   -2.5981    0.0000 S   0  0  0  0  0  0  0  0  0  0  0  0
   -3.0000   -2.5981    0.0000 C   0  0  0  0  0  0  0  0  0  0  0  0
   -3.0000   -1.0981    0.0000 C   0  0  0  0  0  0  0  0  0  0  0  0
   -3.0000   -4.0981    0.0000 C   0  0  0  0  0  0  0  0  0  0  0  0
   -4.5000   -2.5981    0.0000 S   0  0  0  0  0  0  0  0  0  0  0  0
   -5.2500   -3.8971    0.0000 C   0  0  0  0  0  0  0  0  0  0  0  0
   -6.7500   -3.8971    0.0000 C   0  0  0  0  0  0  0  0  0  0  0  0
   -7.5000   -5.1962    0.0000 C   0  0  0  0  0  0  0  0  0  0  0  0
   -6.7500   -6.4952    0.0000 C   0  0  0  0  0  0  0  0  0  0  0  0
   -7.5000   -7.7942    0.0000 O   0  0  0  0  0  0  0  0  0  0  0  0
   -5.2500   -6.4952    0.0000 C   0  0  0  0  0  0  0  0  0  0  0  0
   -4.5000   -5.1962    0.0000 C   0  0  0  0  0  0  0  0  0  0  0  0
   -4.5000   -7.7942    0.0000 C   0  0  0  0  0  0  0  0  0  0  0  0
   -3.2010   -7.0442    0.0000 C   0  0  0  0  0  0  0  0  0  0  0  0
   -5.7990   -8.5442    0.0000 C   0  0  0  0  0  0  0  0  0  0  0  0
   -3.7500   -9.0933    0.0000 C   0  0  0  0  0  0  0  0  0  0  0  0
   -9.0000   -5.1962    0.0000 C   0  0  0  0  0  0  0  0  0  0  0  0
   -9.0000   -3.6962    0.0000 C   0  0  0  0  0  0  0  0  0  0  0  0
   -9.0000   -6.6962    0.0000 C   0  0  0  0  0  0  0  0  0  0  0  0
  -10.5000   -5.1962    0.0000 C   0  0  0  0  0  0  0  0  0  0  0  0
    0.7500   -1.2990    0.0000 C   0  0  0  0  0  0  0  0  0  0  0  0
    1.5000   -0.0000    0.0000 C   0  0  0  0  0  0  0  0  0  0  0  0
    0.7500    1.2990    0.0000 C   0  0  0  0  0  0  0  0  0  0  0  0
    1.5000    2.5981    0.0000 O   0  0  0  0  0  0  0  0  0  0  0  0
    3.0000   -0.0000    0.0000 C   0  0  0  0  0  0  0  0  0  0  0  0
    3.0000    1.5000    0.0000 C   0  0  0  0  0  0  0  0  0  0  0  0
    3.0000   -1.5000    0.0000 C   0  0  0  0  0  0  0  0  0  0  0  0
    4.5000   -0.0000    0.0000 C   0  0  0  0  0  0  0  0  0  0  0  0
  1  2  1  0
  2  3  1  0
  2  4  1  0
  2  5  1  0
  5  6  2  0
  6  7  1  0
  7  8  1  0
  8  9  1  0
  9 10  1  0
  9 11  1  0
  9 12  1  0
 12 13  1  0
 13 14  2  0
 14 15  1  0
 15 16  2  0
 16 17  1  0
 16 18  1  0
 18 19  2  0
 18 20  1  0
 20 21  1  0
 20 22  1  0
 20 23  1  0
 15 24  1  0
 24 25  1  0
 24 26  1  0
 24 27  1  0
  7 28  2  0
 28 29  1  0
 29 30  2  0
 30 31  1  0
 29 32  1  0
 32 33  1  0
 32 34  1  0
 32 35  1  0
 30  5  1  0
 19 13  1  0
M  END
$$$$
675222
     RDKit          2D

 31 34  0  0  0  0  0  0  0  0999 V2000
    3.0000   -1.5000    0.0000 C   0  0  0  0  0  0  0  0  0  0  0  0
    3.0000    0.0000    0.0000 C   0  0  0  0  0  0  0  0  0  0  0  0
    3.0000    1.5000    0.0000 C   0  0  0  0  0  0  0  0  0  0  0  0
    4.5000    0.0000    0.0000 C   0  0  0  0  0  0  0  0  0  0  0  0
    1.5000    0.0000    0.0000 C   0  0  0  0  0  0  0  0  0  0  0  0
    0.7500   -1.2990    0.0000 C   0  0  0  0  0  0  0  0  0  0  0  0
   -0.7500   -1.2990    0.0000 C   0  0  0  0  0  0  0  0  0  0  0  0
   -1.5000    0.0000    0.0000 C   0  0  0  0  0  0  0  0  0  0  0  0
   -3.0000    0.0000    0.0000 C   0  0  0  0  0  0  0  0  0  0  0  0
   -3.7500    1.2990    0.0000 N   0  0  0  0  0  0  0  0  0  0  0  0
   -3.0000    2.5981    0.0000 C   0  0  0  0  0  0  0  0  0  0  0  0
   -3.7500    3.8971    0.0000 C   0  0  0  0  0  0  0  0  0  0  0  0
   -5.2500    3.8971    0.0000 N   0  0  0  0  0  0  0  0  0  0  0  0
   -6.0000    2.5981    0.0000 C   0  0  0  0  0  0  0  0  0  0  0  0
   -5.2500    1.2990    0.0000 C   0  0  0  0  0  0  0  0  0  0  0  0
   -6.0000    5.1962    0.0000 C   0  0  0  0  0  0  0  0  0  0  0  0
   -5.2500    6.4952    0.0000 C   0  0  0  0  0  0  0  0  0  0  0  0
   -3.7500    6.4952    0.0000 C   0  0  0  0  0  0  0  0  0  0  0  0
   -3.0000    7.7942    0.0000 C   0  0  0  0  0  0  0  0  0  0  0  0
   -3.7500    9.0933    0.0000 C   0  0  0  0  0  0  0  0  0  0  0  0
   -5.2500    9.0933    0.0000 C   0  0  0  0  0  0  0  0  0  0  0  0
   -6.0000    7.7942    0.0000 C   0  0  0  0  0  0  0  0  0  0  0  0
   -7.5000    5.1962    0.0000 C   0  0  0  0  0  0  0  0  0  0  0  0
   -8.2500    6.4952    0.0000 C   0  0  0  0  0  0  0  0  0  0  0  0
   -9.7500    6.4952    0.0000 C   0  0  0  0  0  0  0  0  0  0  0  0
  -10.5000    5.1962    0.0000 C   0  0  0  0  0  0  0  0  0  0  0  0
  -12.0000    5.1962    0.0000 Cl  0  0  0  0  0  0  0  0  0  0  0  0
   -9.7500    3.8971    0.0000 C   0  0  0  0  0  0  0  0  0  0  0  0
   -8.2500    3.8971    0.0000 C   0  0  0  0  0  0  0  0  0  0  0  0
   -0.7500    1.2990    0.0000 C   0  0  0  0  0  0  0  0  0  0  0  0
    0.7500    1.2990    0.0000 C   0  0  0  0  0  0  0  0  0  0  0  0
  1  2  1  0
  2  3  1  0
  2  4  1  0
  2  5  1  0
  5  6  2  0
  6  7  1  0
  7  8  2  0
  8  9  1  0
  9 10  1  0
 10 11  1  0
 11 12  1  0
 12 13  1  0
 13 14  1  0
 14 15  1  0
 13 16  1  0
 16 17  1  0
 17 18  2  0
 18 19  1  0
 19 20  2  0
 20 21  1  0
 21 22  2  0
 16 23  1  0
 23 24  2  0
 24 25  1  0
 25 26  2  0
 26 27  1  0
 26 28  1  0
 28 29  2  0
  8 30  1  0
 30 31  2  0
 31  5  1  0
 15 10  1  0
 22 17  1  0
 29 23  1  0
M  END
$$$$
1340894
     RDKit          2D

 35 38  0  0  0  0  0  0  0  0999 V2000
    3.3396   -6.6207    0.0000 C   0  0  0  0  0  0  0  0  0  0  0  0
    1.8478   -6.4639    0.0000 C   0  0  0  0  0  0  0  0  0  0  0  0
    0.3560   -6.3071    0.0000 C   0  0  0  0  0  0  0  0  0  0  0  0
    1.6910   -7.9557    0.0000 C   0  0  0  0  0  0  0  0  0  0  0  0
    2.0046   -4.9721    0.0000 C   0  0  0  0  0  0  0  0  0  0  0  0
    0.8899   -3.9684    0.0000 N   0  0  0  0  0  0  0  0  0  0  0  0
    1.5000   -2.5981    0.0000 C   0  0  0  0  0  0  0  0  0  0  0  0
    0.7500   -1.2990    0.0000 C   0  0  0  0  0  0  0  0  0  0  0  0
    1.5000    0.0000    0.0000 C   0  0  0  0  0  0  0  0  0  0  0  0
    0.7500    1.2990    0.0000 C   0  0  0  0  0  0  0  0  0  0  0  0
   -0.7500    1.2990    0.0000 C   0  0  0  0  0  0  0  0  0  0  0  0
   -1.5000    0.0000    0.0000 C   0  0  0  0  0  0  0  0  0  0  0  0
   -3.0000    0.0000    0.0000 N   0  0  0  0  0  0  0  0  0  0  0  0
   -3.7500    1.2990    0.0000 S   0  0  0  0  0  0  0  0  0  0  0  0
   -2.4510    2.0490    0.0000 O   0  0  0  0  0  0  0  0  0  0  0  0
   -5.0490    0.5490    0.0000 O   0  0  0  0  0  0  0  0  0  0  0  0
   -4.5000    2.5981    0.0000 C   0  0  0  0  0  0  0  0  0  0  0  0
   -3.7500    3.8971    0.0000 C   0  0  0  0  0  0  0  0  0  0  0  0
   -2.2500    3.8971    0.0000 F   0  0  0  0  0  0  0  0  0  0  0  0
   -4.5000    5.1962    0.0000 C   0  0  0  0  0  0  0  0  0  0  0  0
   -6.0000    5.1962    0.0000 C   0  0  0  0  0  0  0  0  0  0  0  0
   -6.7500    3.8971    0.0000 C   0  0  0  0  0  0  0  0  0  0  0  0
   -6.0000    2.5981    0.0000 C   0  0  0  0  0  0  0  0  0  0  0  0
   -6.7500    1.2990    0.0000 F   0  0  0  0  0  0  0  0  0  0  0  0
   -0.7500   -1.2990    0.0000 C   0  0  0  0  0  0  0  0  0  0  0  0
   -1.5000   -2.5981    0.0000 F   0  0  0  0  0  0  0  0  0  0  0  0
    2.9918   -2.7549    0.0000 C   0  0  0  0  0  0  0  0  0  0  0  0
    3.3037   -4.2221    0.0000 S   0  0  0  0  0  0  0  0  0  0  0  0
    3.9955   -1.6402    0.0000 C   0  0  0  0  0  0  0  0  0  0  0  0
    3.5320   -0.2136    0.0000 C   0  0  0  0  0  0  0  0  0  0  0  0
    4.5356    0.9012    0.0000 C   0  0  0  0  0  0  0  0  0  0  0  0
    6.0029    0.5893    0.0000 N   0  0  0  0  0  0  0  0  0  0  0  0
    6.4664   -0.8373    0.0000 C   0  0  0  0  0  0  0  0  0  0  0  0
    7.9336   -1.1492    0.0000 N   0  0  0  0  0  0  0  0  0  0  0  0
    5.4627   -1.9520    0.0000 N   0  0  0  0  0  0  0  0  0  0  0  0
  1  2  1  0
  2  3  1  0
  2  4  1  0
  2  5  1  0
  5  6  2  0
  6  7  1  0
  7  8  1  0
  8  9  2  0
  9 10  1  0
 10 11  2  0
 11 12  1  0
 12 13  1  0
 13 14  1  0
 14 15  2  0
 14 16  2  0
 14 17  1  0
 17 18  2  0
 18 19  1  0
 18 20  1  0
 20 21  2  0
 21 22  1  0
 22 23  2  0
 23 24  1  0
 12 25  2  0
 25 26  1  0
  7 27  2  0
 27 28  1  0
 27 29  1  0
 29 30  2  0
 30 31  1  0
 31 32  2  0
 32 33  1  0
 33 34  1  0
 33 35  2  0
 28  5  1  0
 25  8  1  0
 23 17  1  0
 35 29  1  0
M  END
$$$$
1377999
     RDKit          2D

 40 42  0  0  0  0  0  0  0  0999 V2000
    3.3396   -6.6207    0.0000 C   0  0  0  0  0  0  0  0  0  0  0  0
    1.8478   -6.4639    0.0000 C   0  0  0  0  0  0  0  0  0  0  0  0
    0.3560   -6.3071    0.0000 C   0  0  0  0  0  0  0  0  0  0  0  0
    1.6910   -7.9557    0.0000 C   0  0  0  0  0  0  0  0  0  0  0  0
    2.0046   -4.9721    0.0000 C   0  0  0  0  0  0  0  0  0  0  0  0
    0.8899   -3.9684    0.0000 N   0  0  0  0  0  0  0  0  0  0  0  0
    1.5000   -2.5981    0.0000 C   0  0  0  0  0  0  0  0  0  0  0  0
    0.7500   -1.2990    0.0000 C   0  0  0  0  0  0  0  0  0  0  0  0
    1.5000    0.0000    0.0000 C   0  0  0  0  0  0  0  0  0  0  0  0
    0.7500    1.2990    0.0000 C   0  0  0  0  0  0  0  0  0  0  0  0
   -0.7500    1.2990    0.0000 C   0  0  0  0  0  0  0  0  0  0  0  0
   -1.5000    0.0000    0.0000 C   0  0  0  0  0  0  0  0  0  0  0  0
   -3.0000    0.0000    0.0000 N   0  0  0  0  0  0  0  0  0  0  0  0
   -3.7500    1.2990    0.0000 S   0  0  0  0  0  0  0  0  0  0  0  0
   -2.4510    2.0490    0.0000 O   0  0  0  0  0  0  0  0  0  0  0  0
   -5.0490    0.5490    0.0000 O   0  0  0  0  0  0  0  0  0  0  0  0
   -4.5000    2.5981    0.0000 C   0  0  0  0  0  0  0  0  0  0  0  0
   -3.7500    3.8971    0.0000 C   0  0  0  0  0  0  0  0  0  0  0  0
   -2.2500    3.8971    0.0000 F   0  0  0  0  0  0  0  0  0  0  0  0
   -4.5000    5.1962    0.0000 C   0  0  0  0  0  0  0  0  0  0  0  0
   -6.0000    5.1962    0.0000 C   0  0  0  0  0  0  0  0  0  0  0  0
   -6.7500    3.8971    0.0000 C   0  0  0  0  0  0  0  0  0  0  0  0
   -6.0000    2.5981    0.0000 C   0  0  0  0  0  0  0  0  0  0  0  0
   -6.7500    1.2990    0.0000 F   0  0  0  0  0  0  0  0  0  0  0  0
   -0.7500   -1.2990    0.0000 C   0  0  0  0  0  0  0  0  0  0  0  0
   -1.5000   -2.5981    0.0000 F   0  0  0  0  0  0  0  0  0  0  0  0
    2.9918   -2.7549    0.0000 C   0  0  0  0  0  0  0  0  0  0  0  0
    3.3037   -4.2221    0.0000 S   0  0  0  0  0  0  0  0  0  0  0  0
    3.9955   -1.6402    0.0000 C   0  0  0  0  0  0  0  0  0  0  0  0
    3.5320   -0.2136    0.0000 C   0  0  0  0  0  0  0  0  0  0  0  0
    4.5356    0.9012    0.0000 C   0  0  0  0  0  0  0  0  0  0  0  0
    6.0029    0.5893    0.0000 N   0  0  0  0  0  0  0  0  0  0  0  0
    6.4664   -0.8373    0.0000 C   0  0  0  0  0  0  0  0  0  0  0  0
    7.9336   -1.1492    0.0000 N   0  0  0  0  0  0  0  0  0  0  0  0
    5.4627   -1.9520    0.0000 N   0  0  0  0  0  0  0  0  0  0  0  0
    0.0000    6.7452    0.0000 C   0  0  0  0  0  0  0  0  0  0  0  0
    1.2990    7.4952    0.0000 S   0  0  0  0  0  0  0  0  0  0  0  0
    2.0490    6.1962    0.0000 O   0  0  0  0  0  0  0  0  0  0  0  0
    0.5490    8.7942    0.0000 O   0  0  0  0  0  0  0  0  0  0  0  0
    2.5981    8.2452    0.0000 O   0  0  0  0  0  0  0  0  0  0  0  0
  1  2  1  0
  2  3  1  0
  2  4  1  0
  2  5  1  0
  5  6  2  0
  6  7  1  0
  7  8  1  0
  8  9  2  0
  9 10  1  0
 10 11  2  0
 11 12  1  0
 12 13  1  0
 13 14  1  0
 14 15  2  0
 14 16  2  0
 14 17  1  0
 17 18  2  0
 18 19  1  0
 18 20  1  0
 20 21  2  0
 21 22  1  0
 22 23  2  0
 23 24  1  0
 12 25  2  0
 25 26  1  0
  7 27  2  0
 27 28  1  0
 27 29  1  0
 29 30  2  0
 30 31  1  0
 31 32  2  0
 32 33  1  0
 33 34  1  0
 33 35  2  0
 36 37  1  0
 37 38  2  0
 37 39  2  0
 37 40  1  0
 28  5  1  0
 25  8  1  0
 23 17  1  0
 35 29  1  0
M  END
$$$$
360720
     RDKit          2D

 37 39  0  0  0  0  0  0  0  0999 V2000
   -3.6922   -7.2452    0.0000 C   0  0  0  0  0  0  0  0  0  0  0  0
   -4.9913   -6.4952    0.0000 C   0  0  0  0  0  0  0  0  0  0  0  0
   -6.2903   -5.7452    0.0000 C   0  0  0  0  0  0  0  0  0  0  0  0
   -5.7413   -7.7942    0.0000 C   0  0  0  0  0  0  0  0  0  0  0  0
   -4.2413   -5.1962    0.0000 N   0  0  0  0  0  0  0  0  0  0  0  0
   -4.9913   -3.8971    0.0000 C   0  0  0  0  0  0  0  0  0  0  0  0
   -6.4913   -3.8971    0.0000 O   0  0  0  0  0  0  0  0  0  0  0  0
   -4.2413   -2.5981    0.0000 N   0  0  0  0  0  0  0  0  0  0  0  0
   -4.9913   -1.2990    0.0000 C   0  0  0  0  0  0  0  0  0  0  0  0
   -4.2413    0.0000    0.0000 C   0  0  0  0  0  0  0  0  0  0  0  0
   -4.9913    1.2990    0.0000 O   0  0  0  0  0  0  0  0  0  0  0  0
   -2.7413    0.0000    0.0000 N   0  0  0  0  0  0  0  0  0  0  0  0
   -1.8596   -1.2135    0.0000 C   0  0  0  0  0  0  0  0  0  0  0  0
   -0.4330   -0.7500    0.0000 C   0  0  0  0  0  0  0  0  0  0  0  0
   -0.4330    0.7500    0.0000 C   0  0  0  0  0  0  0  0  0  0  0  0
   -1.8596    1.2135    0.0000 C   0  0  0  0  0  0  0  0  0  0  0  0
   -2.3231    2.6401    0.0000 C   0  0  0  0  0  0  0  0  0  0  0  0
   -3.7903    2.9520    0.0000 O   0  0  0  0  0  0  0  0  0  0  0  0
   -1.3194    3.7548    0.0000 N   0  0  0  0  0  0  0  0  0  0  0  0
   -1.7830    5.1814    0.0000 C   0  0  0  0  0  0  0  0  0  0  0  0
   -0.7793    6.2961    0.0000 C   0  0  0  0  0  0  0  0  0  0  0  0
    0.6880    5.9843    0.0000 C   0  0  0  0  0  0  0  0  0  0  0  0
    1.9460    6.8012    0.0000 C   0  0  0  0  0  0  0  0  0  0  0  0
    2.7629    5.5432    0.0000 C   0  0  0  0  0  0  0  0  0  0  0  0
    1.5049    4.7263    0.0000 C   0  0  0  0  0  0  0  0  0  0  0  0
   -3.2502    5.4933    0.0000 C   0  0  0  0  0  0  0  0  0  0  0  0
   -4.2539    4.3786    0.0000 O   0  0  0  0  0  0  0  0  0  0  0  0
   -3.7137    6.9199    0.0000 C   0  0  0  0  0  0  0  0  0  0  0  0
   -2.7100    8.0346    0.0000 O   0  0  0  0  0  0  0  0  0  0  0  0
   -5.1809    7.2317    0.0000 N   0  0  0  0  0  0  0  0  0  0  0  0
    0.8660    0.0000    0.0000 C   0  0  0  0  0  0  0  0  0  0  0  0
    1.8302    1.1491    0.0000 C   0  0  0  0  0  0  0  0  0  0  0  0
    1.8302   -1.1491    0.0000 C   0  0  0  0  0  0  0  0  0  0  0  0
   -6.4913   -1.2990    0.0000 C   0  0  0  0  0  0  0  0  0  0  0  0
   -6.4913   -2.7990    0.0000 C   0  0  0  0  0  0  0  0  0  0  0  0
   -6.4913    0.2010    0.0000 C   0  0  0  0  0  0  0  0  0  0  0  0
   -7.9913   -1.2990    0.0000 C   0  0  0  0  0  0  0  0  0  0  0  0
  1  2  1  0
  2  3  1  0
  2  4  1  0
  2  5  1  0
  5  6  1  0
  6  7  2  0
  6  8  1  0
  9  8  1  1
  9 10  1  0
 10 11  2  0
 10 12  1  0
 12 13  1  0
 14 13  1  1
 14 15  1  0
 15 16  1  0
 16 17  1  6
 17 18  2  0
 17 19  1  0
 19 20  1  0
 20 21  1  0
 21 22  1  0
 22 23  1  0
 23 24  1  0
 24 25  1  0
 20 26  1  0
 26 27  2  0
 26 28  1  0
 28 29  2  0
 28 30  1  0
 15 31  1  1
 31 32  1  0
 31 33  1  0
  9 34  1  0
 34 35  1  0
 34 36  1  0
 34 37  1  0
 16 12  1  0
 31 14  1  0
 25 22  1  0
M  END
$$$$
17170
     RDKit          2D

 45 49  0  0  0  0  0  0  0  0999 V2000
  -13.2688    0.3981    0.0000 C   0  0  0  0  0  0  0  0  0  0  0  0
  -12.8053   -1.0285    0.0000 C   0  0  0  0  0  0  0  0  0  0  0  0
  -12.3418   -2.4551    0.0000 C   0  0  0  0  0  0  0  0  0  0  0  0
  -14.2319   -1.4920    0.0000 C   0  0  0  0  0  0  0  0  0  0  0  0
  -11.3787   -0.5649    0.0000 N   0  0  0  0  0  0  0  0  0  0  0  0
  -10.2640   -1.5686    0.0000 C   0  0  0  0  0  0  0  0  0  0  0  0
  -10.5759   -3.0359    0.0000 O   0  0  0  0  0  0  0  0  0  0  0  0
   -8.8374   -1.1051    0.0000 C   0  0  0  0  0  0  0  0  0  0  0  0
   -8.5256    0.3621    0.0000 C   0  0  0  0  0  0  0  0  0  0  0  0
   -7.0990    0.8256    0.0000 N   0  0  0  0  0  0  0  0  0  0  0  0
   -6.7871    2.2929    0.0000 C   0  0  0  0  0  0  0  0  0  0  0  0
   -5.3605    2.7564    0.0000 C   0  0  0  0  0  0  0  0  0  0  0  0
   -4.2458    1.7527    0.0000 C   0  0  0  0  0  0  0  0  0  0  0  0
   -2.8192    2.2162    0.0000 C   0  0  0  0  0  0  0  0  0  0  0  0
   -2.5074    3.6834    0.0000 C   0  0  0  0  0  0  0  0  0  0  0  0
   -3.6221    4.6871    0.0000 N   0  0  0  0  0  0  0  0  0  0  0  0
   -5.0487    4.2236    0.0000 C   0  0  0  0  0  0  0  0  0  0  0  0
   -5.9843   -0.1781    0.0000 C   0  0  0  0  0  0  0  0  0  0  0  0
   -6.2961   -1.6453    0.0000 C   0  0  0  0  0  0  0  0  0  0  0  0
   -7.7227   -2.1088    0.0000 N   0  0  0  0  0  0  0  0  0  0  0  0
   -8.0346   -3.5760    0.0000 C   0  0  0  0  0  0  0  0  0  0  0  0
   -6.9199   -4.5797    0.0000 C   0  0  0  0  0  0  0  0  0  0  0  0
   -7.2317   -6.0469    0.0000 O   0  0  0  0  0  0  0  0  0  0  0  0
   -5.4933   -4.1162    0.0000 C   0  0  0  0  0  0  0  0  0  0  0  0
   -4.3786   -5.1199    0.0000 C   0  0  0  0  0  0  0  0  0  0  0  0
   -4.6904   -6.5871    0.0000 C   0  0  0  0  0  0  0  0  0  0  0  0
   -3.5757   -7.5908    0.0000 C   0  0  0  0  0  0  0  0  0  0  0  0
   -3.8876   -9.0580    0.0000 C   0  0  0  0  0  0  0  0  0  0  0  0
   -2.7729  -10.0617    0.0000 C   0  0  0  0  0  0  0  0  0  0  0  0
   -1.3463   -9.5982    0.0000 C   0  0  0  0  0  0  0  0  0  0  0  0
   -1.0344   -8.1310    0.0000 C   0  0  0  0  0  0  0  0  0  0  0  0
   -2.1491   -7.1273    0.0000 C   0  0  0  0  0  0  0  0  0  0  0  0
   -2.9520   -4.6564    0.0000 C   0  0  0  0  0  0  0  0  0  0  0  0
   -1.8373   -5.6601    0.0000 O   0  0  0  0  0  0  0  0  0  0  0  0
   -2.6401   -3.1891    0.0000 N   0  0  0  0  0  0  0  0  0  0  0  0
   -1.2135   -2.7256    0.0000 C   0  0  0  0  0  0  0  0  0  0  0  0
   -0.0000   -3.6073    0.0000 C   0  0  0  0  0  0  0  0  0  0  0  0
    0.0000   -5.1073    0.0000 O   0  0  0  0  0  0  0  0  0  0  0  0
    1.2135   -2.7256    0.0000 C   0  0  0  0  0  0  0  0  0  0  0  0
    0.7500   -1.2990    0.0000 C   0  0  0  0  0  0  0  0  0  0  0  0
    1.5000    0.0000    0.0000 C   0  0  0  0  0  0  0  0  0  0  0  0
    0.7500    1.2990    0.0000 C   0  0  0  0  0  0  0  0  0  0  0  0
   -0.7500    1.2990    0.0000 C   0  0  0  0  0  0  0  0  0  0  0  0
   -1.5000    0.0000    0.0000 C   0  0  0  0  0  0  0  0  0  0  0  0
   -0.7500   -1.2990    0.0000 C   0  0  0  0  0  0  0  0  0  0  0  0
  1  2  1  0
  2  3  1  0
  2  4  1  0
  2  5  1  0
  5  6  1  0
  6  7  2  0
  8  6  1  6
  8  9  1  0
  9 10  1  0
 10 11  1  0
 11 12  1  0
 12 13  2  0
 13 14  1  0
 14 15  2  0
 15 16  1  0
 16 17  2  0
 10 18  1  0
 18 19  1  0
 19 20  1  0
 20 21  1  0
 21 22  1  0
 22 23  1  6
 22 24  1  0
 25 24  1  6
 25 26  1  0
 26 27  1  0
 27 28  2  0
 28 29  1  0
 29 30  2  0
 30 31  1  0
 31 32  2  0
 25 33  1  0
 33 34  2  0
 33 35  1  0
 36 35  1  1
 36 37  1  0
 37 38  1  1
 37 39  1  0
 39 40  1  0
 40 41  2  0
 41 42  1  0
 42 43  2  0
 43 44  1  0
 44 45  2  0
 20  8  1  0
 17 12  1  0
 32 27  1  0
 45 36  1  0
 45 40  1  0
M  END
$$$$
563318
     RDKit          2D

 50 53  0  0  0  0  0  0  0  0999 V2000
  -13.2688    0.3981    0.0000 C   0  0  0  0  0  0  0  0  0  0  0  0
  -12.8053   -1.0285    0.0000 C   0  0  0  0  0  0  0  0  0  0  0  0
  -12.3418   -2.4551    0.0000 C   0  0  0  0  0  0  0  0  0  0  0  0
  -14.2319   -1.4920    0.0000 C   0  0  0  0  0  0  0  0  0  0  0  0
  -11.3787   -0.5649    0.0000 N   0  0  0  0  0  0  0  0  0  0  0  0
  -10.2640   -1.5686    0.0000 C   0  0  0  0  0  0  0  0  0  0  0  0
  -10.5759   -3.0359    0.0000 O   0  0  0  0  0  0  0  0  0  0  0  0
   -8.8374   -1.1051    0.0000 C   0  0  0  0  0  0  0  0  0  0  0  0
   -8.5256    0.3621    0.0000 C   0  0  0  0  0  0  0  0  0  0  0  0
   -7.0990    0.8256    0.0000 N   0  0  0  0  0  0  0  0  0  0  0  0
   -6.7871    2.2929    0.0000 C   0  0  0  0  0  0  0  0  0  0  0  0
   -5.3605    2.7564    0.0000 C   0  0  0  0  0  0  0  0  0  0  0  0
   -4.2458    1.7527    0.0000 C   0  0  0  0  0  0  0  0  0  0  0  0
   -2.8192    2.2162    0.0000 C   0  0  0  0  0  0  0  0  0  0  0  0
   -2.5074    3.6834    0.0000 C   0  0  0  0  0  0  0  0  0  0  0  0
   -3.6221    4.6871    0.0000 N   0  0  0  0  0  0  0  0  0  0  0  0
   -5.0487    4.2236    0.0000 C   0  0  0  0  0  0  0  0  0  0  0  0
   -5.9843   -0.1781    0.0000 C   0  0  0  0  0  0  0  0  0  0  0  0
   -6.2961   -1.6453    0.0000 C   0  0  0  0  0  0  0  0  0  0  0  0
   -7.7227   -2.1088    0.0000 N   0  0  0  0  0  0  0  0  0  0  0  0
   -8.0346   -3.5760    0.0000 C   0  0  0  0  0  0  0  0  0  0  0  0
   -6.9199   -4.5797    0.0000 C   0  0  0  0  0  0  0  0  0  0  0  0
   -7.2317   -6.0469    0.0000 O   0  0  0  0  0  0  0  0  0  0  0  0
   -5.4933   -4.1162    0.0000 C   0  0  0  0  0  0  0  0  0  0  0  0
   -4.3786   -5.1199    0.0000 C   0  0  0  0  0  0  0  0  0  0  0  0
   -4.6904   -6.5871    0.0000 C   0  0  0  0  0  0  0  0  0  0  0  0
   -3.5757   -7.5908    0.0000 C   0  0  0  0  0  0  0  0  0  0  0  0
   -3.8876   -9.0580    0.0000 C   0  0  0  0  0  0  0  0  0  0  0  0
   -2.7729  -10.0617    0.0000 C   0  0  0  0  0  0  0  0  0  0  0  0
   -1.3463   -9.5982    0.0000 C   0  0  0  0  0  0  0  0  0  0  0  0
   -1.0344   -8.1310    0.0000 C   0  0  0  0  0  0  0  0  0  0  0  0
   -2.1491   -7.1273    0.0000 C   0  0  0  0  0  0  0  0  0  0  0  0
   -2.9520   -4.6564    0.0000 C   0  0  0  0  0  0  0  0  0  0  0  0
   -1.8373   -5.6601    0.0000 O   0  0  0  0  0  0  0  0  0  0  0  0
   -2.6401   -3.1891    0.0000 N   0  0  0  0  0  0  0  0  0  0  0  0
   -1.2135   -2.7256    0.0000 C   0  0  0  0  0  0  0  0  0  0  0  0
   -0.0000   -3.6073    0.0000 C   0  0  0  0  0  0  0  0  0  0  0  0
    0.0000   -5.1073    0.0000 O   0  0  0  0  0  0  0  0  0  0  0  0
    1.2135   -2.7256    0.0000 C   0  0  0  0  0  0  0  0  0  0  0  0
    0.7500   -1.2990    0.0000 C   0  0  0  0  0  0  0  0  0  0  0  0
    1.5000    0.0000    0.0000 C   0  0  0  0  0  0  0  0  0  0  0  0
    0.7500    1.2990    0.0000 C   0  0  0  0  0  0  0  0  0  0  0  0
   -0.7500    1.2990    0.0000 C   0  0  0  0  0  0  0  0  0  0  0  0
   -1.5000    0.0000    0.0000 C   0  0  0  0  0  0  0  0  0  0  0  0
   -0.7500   -1.2990    0.0000 C   0  0  0  0  0  0  0  0  0  0  0  0
    0.0000    6.2362    0.0000 O   0  0  0  0  0  0  0  0  0  0  0  0
    1.2990    6.9862    0.0000 S   0  0  0  0  0  0  0  0  0  0  0  0
    2.0490    5.6871    0.0000 O   0  0  0  0  0  0  0  0  0  0  0  0
    0.5490    8.2852    0.0000 O   0  0  0  0  0  0  0  0  0  0  0  0
    2.5981    7.7362    0.0000 O   0  0  0  0  0  0  0  0  0  0  0  0
  1  2  1  0
  2  3  1  0
  2  4  1  0
  2  5  1  0
  5  6  1  0
  6  7  2  0
  8  6  1  6
  8  9  1  0
  9 10  1  0
 10 11  1  0
 11 12  1  0
 12 13  2  0
 13 14  1  0
 14 15  2  0
 15 16  1  0
 16 17  2  0
 10 18  1  0
 18 19  1  0
 19 20  1  0
 20 21  1  0
 21 22  1  0
 22 23  1  6
 22 24  1  0
 25 24  1  6
 25 26  1  0
 26 27  1  0
 27 28  2  0
 28 29  1  0
 29 30  2  0
 30 31  1  0
 31 32  2  0
 25 33  1  0
 33 34  2  0
 33 35  1  0
 36 35  1  1
 36 37  1  0
 37 38  1  1
 37 39  1  0
 39 40  1  0
 40 41  2  0
 41 42  1  0
 42 43  2  0
 43 44  1  0
 44 45  2  0
 46 47  1  0
 47 48  2  0
 47 49  2  0
 47 50  1  0
 20  8  1  0
 17 12  1  0
 32 27  1  0
 45 36  1  0
 45 40  1  0
M  END
$$$$
17169
     RDKit          2D

 49 53  0  0  0  0  0  0  0  0999 V2000
    0.2010   -8.5442    0.0000 C   0  0  0  0  0  0  0  0  0  0  0  0
    1.5000   -7.7942    0.0000 C   0  0  0  0  0  0  0  0  0  0  0  0
    2.7990   -7.0442    0.0000 C   0  0  0  0  0  0  0  0  0  0  0  0
    2.2500   -9.0933    0.0000 C   0  0  0  0  0  0  0  0  0  0  0  0
    0.7500   -6.4952    0.0000 N   0  0  0  0  0  0  0  0  0  0  0  0
    1.5000   -5.1962    0.0000 C   0  0  0  0  0  0  0  0  0  0  0  0
    3.0000   -5.1962    0.0000 O   0  0  0  0  0  0  0  0  0  0  0  0
    0.7500   -3.8971    0.0000 C   0  0  0  0  0  0  0  0  0  0  0  0
    1.5000   -2.5981    0.0000 C   0  0  0  0  0  0  0  0  0  0  0  0
    0.7500   -1.2990    0.0000 C   0  0  0  0  0  0  0  0  0  0  0  0
    1.5000    0.0000    0.0000 C   0  0  0  0  0  0  0  0  0  0  0  0
    0.7500    1.2990    0.0000 C   0  0  0  0  0  0  0  0  0  0  0  0
   -0.7500    1.2990    0.0000 C   0  0  0  0  0  0  0  0  0  0  0  0
   -1.5000    0.0000    0.0000 C   0  0  0  0  0  0  0  0  0  0  0  0
   -0.7500   -1.2990    0.0000 C   0  0  0  0  0  0  0  0  0  0  0  0
   -1.5000   -2.5981    0.0000 C   0  0  0  0  0  0  0  0  0  0  0  0
   -0.7500   -3.8971    0.0000 N   0  0  0  0  0  0  0  0  0  0  0  0
   -1.5000   -5.1962    0.0000 C   0  0  0  0  0  0  0  0  0  0  0  0
   -3.0000   -5.1962    0.0000 C   0  0  0  0  0  0  0  0  0  0  0  0
   -3.7500   -3.8971    0.0000 O   0  0  0  0  0  0  0  0  0  0  0  0
   -3.7500   -6.4952    0.0000 C   0  0  0  0  0  0  0  0  0  0  0  0
   -5.2500   -6.4952    0.0000 C   0  0  0  0  0  0  0  0  0  0  0  0
   -6.0000   -7.7942    0.0000 C   0  0  0  0  0  0  0  0  0  0  0  0
   -7.5000   -7.7942    0.0000 C   0  0  0  0  0  0  0  0  0  0  0  0
   -8.2500   -9.0933    0.0000 C   0  0  0  0  0  0  0  0  0  0  0  0
   -7.5000  -10.3923    0.0000 C   0  0  0  0  0  0  0  0  0  0  0  0
   -6.0000  -10.3923    0.0000 C   0  0  0  0  0  0  0  0  0  0  0  0
   -5.2500   -9.0933    0.0000 C   0  0  0  0  0  0  0  0  0  0  0  0
   -3.0000   -7.7942    0.0000 N   0  0  0  0  0  0  0  0  0  0  0  0
   -1.5000   -7.7942    0.0000 C   0  0  0  0  0  0  0  0  0  0  0  0
   -0.7500   -6.4952    0.0000 O   0  0  0  0  0  0  0  0  0  0  0  0
   -0.7500   -9.0933    0.0000 C   0  0  0  0  0  0  0  0  0  0  0  0
    0.7500   -9.0933    0.0000 C   0  0  0  0  0  0  0  0  0  0  0  0
    1.5000  -10.3923    0.0000 C   0  0  0  0  0  0  0  0  0  0  0  0
    0.7500  -11.6913    0.0000 O   0  0  0  0  0  0  0  0  0  0  0  0
    3.0000  -10.3923    0.0000 N   0  0  0  0  0  0  0  0  0  0  0  0
   -1.5000  -10.3923    0.0000 N   0  0  0  0  0  0  0  0  0  0  0  0
   -3.0000  -10.3923    0.0000 C   0  0  0  0  0  0  0  0  0  0  0  0
   -3.7500   -9.0933    0.0000 O   0  0  0  0  0  0  0  0  0  0  0  0
   -3.7500  -11.6913    0.0000 C   0  0  0  0  0  0  0  0  0  0  0  0
   -3.0000  -12.9904    0.0000 C   0  0  0  0  0  0  0  0  0  0  0  0
   -3.7500  -14.2894    0.0000 C   0  0  0  0  0  0  0  0  0  0  0  0
   -5.2500  -14.2894    0.0000 C   0  0  0  0  0  0  0  0  0  0  0  0
   -6.0000  -15.5885    0.0000 C   0  0  0  0  0  0  0  0  0  0  0  0
   -7.5000  -15.5885    0.0000 C   0  0  0  0  0  0  0  0  0  0  0  0
   -8.2500  -14.2894    0.0000 C   0  0  0  0  0  0  0  0  0  0  0  0
   -7.5000  -12.9904    0.0000 C   0  0  0  0  0  0  0  0  0  0  0  0
   -6.0000  -12.9904    0.0000 C   0  0  0  0  0  0  0  0  0  0  0  0
   -5.2500  -11.6913    0.0000 N   0  0  0  0  0  0  0  0  0  0  0  0
  1  2  1  0
  2  3  1  0
  2  4  1  0
  2  5  1  0
  5  6  1  0
  6  7  2  0
  8  6  1  1
  8  9  1  0
 10  9  1  1
 10 11  1  0
 11 12  1  0
 12 13  1  0
 13 14  1  0
 15 14  1  1
 15 16  1  0
 16 17  1  0
 17 18  1  0
 18 19  1  0
 19 20  1  6
 19 21  1  0
 21 22  1  1
 22 23  1  0
 23 24  2  0
 24 25  1  0
 25 26  2  0
 26 27  1  0
 27 28  2  0
 21 29  1  0
 29 30  1  0
 30 31  2  0
 30 32  1  0
 32 33  1  6
 33 34  1  0
 34 35  2  0
 34 36  1  0
 32 37  1  0
 37 38  1  0
 38 39  2  0
 38 40  1  0
 40 41  2  0
 41 42  1  0
 42 43  2  0
 43 44  1  0
 44 45  2  0
 45 46  1  0
 46 47  2  0
 47 48  1  0
 48 49  2  0
 17  8  1  0
 15 10  1  0
 28 23  1  0
 49 40  1  0
 48 43  1  0
M  END
$$$$
24418
     RDKit          2D

 54 57  0  0  0  0  0  0  0  0999 V2000
    0.2010   -8.5442    0.0000 C   0  0  0  0  0  0  0  0  0  0  0  0
    1.5000   -7.7942    0.0000 C   0  0  0  0  0  0  0  0  0  0  0  0
    2.7990   -7.0442    0.0000 C   0  0  0  0  0  0  0  0  0  0  0  0
    2.2500   -9.0933    0.0000 C   0  0  0  0  0  0  0  0  0  0  0  0
    0.7500   -6.4952    0.0000 N   0  0  0  0  0  0  0  0  0  0  0  0
    1.5000   -5.1962    0.0000 C   0  0  0  0  0  0  0  0  0  0  0  0
    3.0000   -5.1962    0.0000 O   0  0  0  0  0  0  0  0  0  0  0  0
    0.7500   -3.8971    0.0000 C   0  0  0  0  0  0  0  0  0  0  0  0
    1.5000   -2.5981    0.0000 C   0  0  0  0  0  0  0  0  0  0  0  0
    0.7500   -1.2990    0.0000 C   0  0  0  0  0  0  0  0  0  0  0  0
    1.5000    0.0000    0.0000 C   0  0  0  0  0  0  0  0  0  0  0  0
    0.7500    1.2990    0.0000 C   0  0  0  0  0  0  0  0  0  0  0  0
   -0.7500    1.2990    0.0000 C   0  0  0  0  0  0  0  0  0  0  0  0
   -1.5000    0.0000    0.0000 C   0  0  0  0  0  0  0  0  0  0  0  0
   -0.7500   -1.2990    0.0000 C   0  0  0  0  0  0  0  0  0  0  0  0
   -1.5000   -2.5981    0.0000 C   0  0  0  0  0  0  0  0  0  0  0  0
   -0.7500   -3.8971    0.0000 N   0  0  0  0  0  0  0  0  0  0  0  0
   -1.5000   -5.1962    0.0000 C   0  0  0  0  0  0  0  0  0  0  0  0
   -3.0000   -5.1962    0.0000 C   0  0  0  0  0  0  0  0  0  0  0  0
   -3.7500   -3.8971    0.0000 O   0  0  0  0  0  0  0  0  0  0  0  0
   -3.7500   -6.4952    0.0000 C   0  0  0  0  0  0  0  0  0  0  0  0
   -5.2500   -6.4952    0.0000 C   0  0  0  0  0  0  0  0  0  0  0  0
   -6.0000   -7.7942    0.0000 C   0  0  0  0  0  0  0  0  0  0  0  0
   -7.5000   -7.7942    0.0000 C   0  0  0  0  0  0  0  0  0  0  0  0
   -8.2500   -9.0933    0.0000 C   0  0  0  0  0  0  0  0  0  0  0  0
   -7.5000  -10.3923    0.0000 C   0  0  0  0  0  0  0  0  0  0  0  0
   -6.0000  -10.3923    0.0000 C   0  0  0  0  0  0  0  0  0  0  0  0
   -5.2500   -9.0933    0.0000 C   0  0  0  0  0  0  0  0  0  0  0  0
   -3.0000   -7.7942    0.0000 N   0  0  0  0  0  0  0  0  0  0  0  0
   -1.5000   -7.7942    0.0000 C   0  0  0  0  0  0  0  0  0  0  0  0
   -0.7500   -6.4952    0.0000 O   0  0  0  0  0  0  0  0  0  0  0  0
   -0.7500   -9.0933    0.0000 C   0  0  0  0  0  0  0  0  0  0  0  0
    0.7500   -9.0933    0.0000 C   0  0  0  0  0  0  0  0  0  0  0  0
    1.5000  -10.3923    0.0000 C   0  0  0  0  0  0  0  0  0  0  0  0
    0.7500  -11.6913    0.0000 O   0  0  0  0  0  0  0  0  0  0  0  0
    3.0000  -10.3923    0.0000 N   0  0  0  0  0  0  0  0  0  0  0  0
   -1.5000  -10.3923    0.0000 N   0  0  0  0  0  0  0  0  0  0  0  0
   -3.0000  -10.3923    0.0000 C   0  0  0  0  0  0  0  0  0  0  0  0
   -3.7500   -9.0933    0.0000 O   0  0  0  0  0  0  0  0  0  0  0  0
   -3.7500  -11.6913    0.0000 C   0  0  0  0  0  0  0  0  0  0  0  0
   -3.0000  -12.9904    0.0000 C   0  0  0  0  0  0  0  0  0  0  0  0
   -3.7500  -14.2894    0.0000 C   0  0  0  0  0  0  0  0  0  0  0  0
   -5.2500  -14.2894    0.0000 C   0  0  0  0  0  0  0  0  0  0  0  0
   -6.0000  -15.5885    0.0000 C   0  0  0  0  0  0  0  0  0  0  0  0
   -7.5000  -15.5885    0.0000 C   0  0  0  0  0  0  0  0  0  0  0  0
   -8.2500  -14.2894    0.0000 C   0  0  0  0  0  0  0  0  0  0  0  0
   -7.5000  -12.9904    0.0000 C   0  0  0  0  0  0  0  0  0  0  0  0
   -6.0000  -12.9904    0.0000 C   0  0  0  0  0  0  0  0  0  0  0  0
   -5.2500  -11.6913    0.0000 N   0  0  0  0  0  0  0  0  0  0  0  0
    4.0000    0.0000    0.0000 C   0  0  0  0  0  0  0  0  0  0  0  0
    5.2990    0.7500    0.0000 S   0  0  0  0  0  0  0  0  0  0  0  0
    6.0490   -0.5490    0.0000 O   0  0  0  0  0  0  0  0  0  0  0  0
    4.5490    2.0490    0.0000 O   0  0  0  0  0  0  0  0  0  0  0  0
    6.5981    1.5000    0.0000 O   0  0  0  0  0  0  0  0  0  0  0  0
  1  2  1  0
  2  3  1  0
  2  4  1  0
  2  5  1  0
  5  6  1  0
  6  7  2  0
  8  6  1  1
  8  9  1  0
 10  9  1  1
 10 11  1  0
 11 12  1  0
 12 13  1  0
 13 14  1  0
 15 14  1  1
 15 16  1  0
 16 17  1  0
 17 18  1  0
 18 19  1  0
 19 20  1  6
 19 21  1  0
 21 22  1  1
 22 23  1  0
 23 24  2  0
 24 25  1  0
 25 26  2  0
 26 27  1  0
 27 28  2  0
 21 29  1  0
 29 30  1  0
 30 31  2  0
 30 32  1  0
 32 33  1  6
 33 34  1  0
 34 35  2  0
 34 36  1  0
 32 37  1  0
 37 38  1  0
 38 39  2  0
 38 40  1  0
 40 41  2  0
 41 42  1  0
 42 43  2  0
 43 44  1  0
 44 45  2  0
 45 46  1  0
 46 47  2  0
 47 48  1  0
 48 49  2  0
 50 51  1  0
 51 52  2  0
 51 53  2  0
 51 54  1  0
 17  8  1  0
 15 10  1  0
 28 23  1  0
 49 40  1  0
 48 43  1  0
M  END
$$$$
33679
     RDKit          2D

 27 30  0  0  0  0  0  0  0  0999 V2000
   -6.1650  -10.4436    0.0000 C   0  0  0  0  0  0  0  0  0  0  0  0
   -6.6286   -9.0170    0.0000 C   0  0  0  0  0  0  0  0  0  0  0  0
   -7.0921   -7.5904    0.0000 C   0  0  0  0  0  0  0  0  0  0  0  0
   -8.0551   -9.4805    0.0000 C   0  0  0  0  0  0  0  0  0  0  0  0
   -5.2020   -8.5535    0.0000 N   0  0  0  0  0  0  0  0  0  0  0  0
   -4.8901   -7.0863    0.0000 C   0  0  0  0  0  0  0  0  0  0  0  0
   -6.0048   -6.0826    0.0000 O   0  0  0  0  0  0  0  0  0  0  0  0
   -3.4635   -6.6227    0.0000 C   0  0  0  0  0  0  0  0  0  0  0  0
   -2.2500   -7.5044    0.0000 C   0  0  0  0  0  0  0  0  0  0  0  0
   -1.0365   -6.6227    0.0000 C   0  0  0  0  0  0  0  0  0  0  0  0
   -1.5000   -5.1962    0.0000 C   0  0  0  0  0  0  0  0  0  0  0  0
   -0.7500   -3.8971    0.0000 C   0  0  0  0  0  0  0  0  0  0  0  0
    0.7500   -3.8971    0.0000 C   0  0  0  0  0  0  0  0  0  0  0  0
    1.5000   -2.5981    0.0000 C   0  0  0  0  0  0  0  0  0  0  0  0
    0.7500   -1.2990    0.0000 C   0  0  0  0  0  0  0  0  0  0  0  0
    1.5000    0.0000    0.0000 N   0  0  0  0  0  0  0  0  0  0  0  0
    0.7500    1.2990    0.0000 C   0  0  0  0  0  0  0  0  0  0  0  0
    1.5000    2.5981    0.0000 O   0  0  0  0  0  0  0  0  0  0  0  0
   -0.7500    1.2990    0.0000 C   0  0  0  0  0  0  0  0  0  0  0  0
   -1.5000    0.0000    0.0000 C   0  0  0  0  0  0  0  0  0  0  0  0
   -0.7500   -1.2990    0.0000 C   0  0  0  0  0  0  0  0  0  0  0  0
   -2.2500   -1.2990    0.0000 C   0  0  0  0  0  0  0  0  0  0  0  0
   -1.5000   -2.5981    0.0000 C   0  0  0  0  0  0  0  0  0  0  0  0
   -3.0000   -2.5981    0.0000 C   0  0  0  0  0  0  0  0  0  0  0  0
   -3.7500   -3.8971    0.0000 C   0  0  0  0  0  0  0  0  0  0  0  0
   -3.0000   -5.1962    0.0000 C   0  0  0  0  0  0  0  0  0  0  0  0
   -4.4918   -5.3529    0.0000 C   0  0  0  0  0  0  0  0  0  0  0  0
  1  2  1  0
  2  3  1  0
  2  4  1  0
  2  5  1  0
  5  6  1  0
  6  7  2  0
  8  6  1  6
  8  9  1  0
  9 10  1  0
 11 10  1  6
 11 12  1  0
 12 13  1  1
 13 14  1  0
 15 14  1  6
 15 16  1  0
 16 17  1  0
 17 18  2  0
 17 19  1  0
 19 20  2  0
 20 21  1  0
 21 22  1  6
 21 23  1  0
 23 24  1  6
 24 25  1  0
 25 26  1  0
 26 27  1  6
 26  8  1  0
 26 11  1  0
 23 12  1  0
 21 15  1  0
M  END
$$$$
583322
     RDKit          2D

 16 16  0  0  0  0  0  0  0  0999 V2000
    7.2990   -1.8481    0.0000 C   0  0  0  0  0  0  0  0  0  0  0  0
    6.0000   -2.5981    0.0000 C   0  0  0  0  0  0  0  0  0  0  0  0
    4.7010   -3.3481    0.0000 C   0  0  0  0  0  0  0  0  0  0  0  0
    6.7500   -3.8971    0.0000 C   0  0  0  0  0  0  0  0  0  0  0  0
    5.2500   -1.2990    0.0000 N   0  0  0  0  0  0  0  0  0  0  0  0
    3.7500   -1.2990    0.0000 C   0  0  0  0  0  0  0  0  0  0  0  0
    3.0000    0.0000    0.0000 C   0  0  0  0  0  0  0  0  0  0  0  0
    3.7500    1.2990    0.0000 O   0  0  0  0  0  0  0  0  0  0  0  0
    1.5000    0.0000    0.0000 C   0  0  0  0  0  0  0  0  0  0  0  0
    0.7500   -1.2990    0.0000 C   0  0  0  0  0  0  0  0  0  0  0  0
   -0.7500   -1.2990    0.0000 C   0  0  0  0  0  0  0  0  0  0  0  0
   -1.5000   -2.5981    0.0000 O   0  0  0  0  0  0  0  0  0  0  0  0
   -1.5000    0.0000    0.0000 C   0  0  0  0  0  0  0  0  0  0  0  0
   -0.7500    1.2990    0.0000 C   0  0  0  0  0  0  0  0  0  0  0  0
   -1.5000    2.5981    0.0000 O   0  0  0  0  0  0  0  0  0  0  0  0
    0.7500    1.2990    0.0000 C   0  0  0  0  0  0  0  0  0  0  0  0
  1  2  1  0
  2  3  1  0
  2  4  1  0
  2  5  1  0
  5  6  1  0
  6  7  1  0
  7  8  1  0
  7  9  1  0
  9 10  2  0
 10 11  1  0
 11 12  1  0
 11 13  2  0
 13 14  1  0
 14 15  1  0
 14 16  2  0
 16  9  1  0
M  END
$$$$
642083
     RDKit          2D

 21 20  0  0  0  0  0  0  0  0999 V2000
    7.2990   -1.8481    0.0000 C   0  0  0  0  0  0  0  0  0  0  0  0
    6.0000   -2.5981    0.0000 C   0  0  0  0  0  0  0  0  0  0  0  0
    4.7010   -3.3481    0.0000 C   0  0  0  0  0  0  0  0  0  0  0  0
    6.7500   -3.8971    0.0000 C   0  0  0  0  0  0  0  0  0  0  0  0
    5.2500   -1.2990    0.0000 N   0  0  0  0  0  0  0  0  0  0  0  0
    3.7500   -1.2990    0.0000 C   0  0  0  0  0  0  0  0  0  0  0  0
    3.0000    0.0000    0.0000 C   0  0  0  0  0  0  0  0  0  0  0  0
    3.7500    1.2990    0.0000 O   0  0  0  0  0  0  0  0  0  0  0  0
    1.5000    0.0000    0.0000 C   0  0  0  0  0  0  0  0  0  0  0  0
    0.7500   -1.2990    0.0000 C   0  0  0  0  0  0  0  0  0  0  0  0
   -0.7500   -1.2990    0.0000 C   0  0  0  0  0  0  0  0  0  0  0  0
   -1.5000   -2.5981    0.0000 O   0  0  0  0  0  0  0  0  0  0  0  0
   -1.5000    0.0000    0.0000 C   0  0  0  0  0  0  0  0  0  0  0  0
   -0.7500    1.2990    0.0000 C   0  0  0  0  0  0  0  0  0  0  0  0
   -1.5000    2.5981    0.0000 O   0  0  0  0  0  0  0  0  0  0  0  0
    0.7500    1.2990    0.0000 C   0  0  0  0  0  0  0  0  0  0  0  0
    0.0000    4.1471    0.0000 O   0  0  0  0  0  0  0  0  0  0  0  0
    1.2990    4.8971    0.0000 S   0  0  0  0  0  0  0  0  0  0  0  0
    2.0490    3.5981    0.0000 O   0  0  0  0  0  0  0  0  0  0  0  0
    0.5490    6.1962    0.0000 O   0  0  0  0  0  0  0  0  0  0  0  0
    2.5981    5.6471    0.0000 O   0  0  0  0  0  0  0  0  0  0  0  0
  1  2  1  0
  2  3  1  0
  2  4  1  0
  2  5  1  0
  5  6  1  0
  6  7  1  0
  7  8  1  0
  7  9  1  0
  9 10  2  0
 10 11  1  0
 11 12  1  0
 11 13  2  0
 13 14  1  0
 14 15  1  0
 14 16  2  0
 17 18  1  0
 18 19  2  0
 18 20  2  0
 18 21  1  0
 16  9  1  0
M  END
$$$$
34094
     RDKit          2D

 17 17  0  0  0  0  0  0  0  0999 V2000
    7.2990   -1.8481    0.0000 C   0  0  0  0  0  0  0  0  0  0  0  0
    6.0000   -2.5981    0.0000 C   0  0  0  0  0  0  0  0  0  0  0  0
    4.7010   -3.3481    0.0000 C   0  0  0  0  0  0  0  0  0  0  0  0
    6.7500   -3.8971    0.0000 C   0  0  0  0  0  0  0  0  0  0  0  0
    5.2500   -1.2990    0.0000 N   0  0  0  0  0  0  0  0  0  0  0  0
    3.7500   -1.2990    0.0000 C   0  0  0  0  0  0  0  0  0  0  0  0
    3.0000    0.0000    0.0000 C   0  0  0  0  0  0  0  0  0  0  0  0
    3.7500    1.2990    0.0000 O   0  0  0  0  0  0  0  0  0  0  0  0
    1.5000    0.0000    0.0000 C   0  0  0  0  0  0  0  0  0  0  0  0
    0.7500   -1.2990    0.0000 C   0  0  0  0  0  0  0  0  0  0  0  0
   -0.7500   -1.2990    0.0000 C   0  0  0  0  0  0  0  0  0  0  0  0
   -1.5000    0.0000    0.0000 C   0  0  0  0  0  0  0  0  0  0  0  0
   -3.0000    0.0000    0.0000 O   0  0  0  0  0  0  0  0  0  0  0  0
   -0.7500    1.2990    0.0000 C   0  0  0  0  0  0  0  0  0  0  0  0
   -1.5000    2.5981    0.0000 C   0  0  0  0  0  0  0  0  0  0  0  0
   -0.7500    3.8971    0.0000 O   0  0  0  0  0  0  0  0  0  0  0  0
    0.7500    1.2990    0.0000 C   0  0  0  0  0  0  0  0  0  0  0  0
  1  2  1  0
  2  3  1  0
  2  4  1  0
  2  5  1  0
  5  6  1  0
  6  7  1  0
  7  8  1  0
  7  9  1  0
  9 10  2  0
 10 11  1  0
 11 12  2  0
 12 13  1  0
 12 14  1  0
 14 15  1  0
 15 16  1  0
 14 17  2  0
 17  9  1  0
M  END
$$$$
674977
     RDKit          2D

 22 21  0  0  0  0  0  0  0  0999 V2000
    7.2990   -1.8481    0.0000 C   0  0  0  0  0  0  0  0  0  0  0  0
    6.0000   -2.5981    0.0000 C   0  0  0  0  0  0  0  0  0  0  0  0
    4.7010   -3.3481    0.0000 C   0  0  0  0  0  0  0  0  0  0  0  0
    6.7500   -3.8971    0.0000 C   0  0  0  0  0  0  0  0  0  0  0  0
    5.2500   -1.2990    0.0000 N   0  0  0  0  0  0  0  0  0  0  0  0
    3.7500   -1.2990    0.0000 C   0  0  0  0  0  0  0  0  0  0  0  0
    3.0000    0.0000    0.0000 C   0  0  0  0  0  0  0  0  0  0  0  0
    3.7500    1.2990    0.0000 O   0  0  0  0  0  0  0  0  0  0  0  0
    1.5000    0.0000    0.0000 C   0  0  0  0  0  0  0  0  0  0  0  0
    0.7500   -1.2990    0.0000 C   0  0  0  0  0  0  0  0  0  0  0  0
   -0.7500   -1.2990    0.0000 C   0  0  0  0  0  0  0  0  0  0  0  0
   -1.5000    0.0000    0.0000 C   0  0  0  0  0  0  0  0  0  0  0  0
   -3.0000    0.0000    0.0000 O   0  0  0  0  0  0  0  0  0  0  0  0
   -0.7500    1.2990    0.0000 C   0  0  0  0  0  0  0  0  0  0  0  0
   -1.5000    2.5981    0.0000 C   0  0  0  0  0  0  0  0  0  0  0  0
   -0.7500    3.8971    0.0000 O   0  0  0  0  0  0  0  0  0  0  0  0
    0.7500    1.2990    0.0000 C   0  0  0  0  0  0  0  0  0  0  0  0
    0.0000    5.4462    0.0000 O   0  0  0  0  0  0  0  0  0  0  0  0
    1.2990    6.1962    0.0000 S   0  0  0  0  0  0  0  0  0  0  0  0
    2.0490    4.8971    0.0000 O   0  0  0  0  0  0  0  0  0  0  0  0
    0.5490    7.4952    0.0000 O   0  0  0  0  0  0  0  0  0  0  0  0
    2.5981    6.9462    0.0000 O   0  0  0  0  0  0  0  0  0  0  0  0
  1  2  1  0
  2  3  1  0
  2  4  1  0
  2  5  1  0
  5  6  1  0
  6  7  1  0
  7  8  1  0
  7  9  1  0
  9 10  2  0
 10 11  1  0
 11 12  2  0
 12 13  1  0
 12 14  1  0
 14 15  1  0
 15 16  1  0
 14 17  2  0
 18 19  1  0
 19 20  2  0
 19 21  2  0
 19 22  1  0
 17  9  1  0
M  END
$$$$
27570
     RDKit          2D

 22 23  0  0  0  0  0  0  0  0999 V2000
    9.5490   -3.1471    0.0000 C   0  0  0  0  0  0  0  0  0  0  0  0
    8.2500   -3.8971    0.0000 C   0  0  0  0  0  0  0  0  0  0  0  0
    6.9510   -4.6471    0.0000 C   0  0  0  0  0  0  0  0  0  0  0  0
    9.0000   -5.1962    0.0000 C   0  0  0  0  0  0  0  0  0  0  0  0
    7.5000   -2.5981    0.0000 N   0  0  0  0  0  0  0  0  0  0  0  0
    6.0000   -2.5981    0.0000 C   0  0  0  0  0  0  0  0  0  0  0  0
    5.2500   -1.2990    0.0000 C   0  0  0  0  0  0  0  0  0  0  0  0
    6.0000    0.0000    0.0000 O   0  0  0  0  0  0  0  0  0  0  0  0
    3.7500   -1.2990    0.0000 C   0  0  0  0  0  0  0  0  0  0  0  0
    3.0000    0.0000    0.0000 O   0  0  0  0  0  0  0  0  0  0  0  0
    1.5000    0.0000    0.0000 C   0  0  0  0  0  0  0  0  0  0  0  0
    0.7500   -1.2990    0.0000 C   0  0  0  0  0  0  0  0  0  0  0  0
   -0.7500   -1.2990    0.0000 C   0  0  0  0  0  0  0  0  0  0  0  0
   -1.5000    0.0000    0.0000 C   0  0  0  0  0  0  0  0  0  0  0  0
   -0.7500    1.2990    0.0000 C   0  0  0  0  0  0  0  0  0  0  0  0
   -1.5000    2.5981    0.0000 C   0  0  0  0  0  0  0  0  0  0  0  0
   -0.7500    3.8971    0.0000 C   0  0  0  0  0  0  0  0  0  0  0  0
   -1.5000    5.1962    0.0000 O   0  0  0  0  0  0  0  0  0  0  0  0
    0.7500    3.8971    0.0000 C   0  0  0  0  0  0  0  0  0  0  0  0
    1.5000    5.1962    0.0000 O   0  0  0  0  0  0  0  0  0  0  0  0
    1.5000    2.5981    0.0000 C   0  0  0  0  0  0  0  0  0  0  0  0
    0.7500    1.2990    0.0000 C   0  0  0  0  0  0  0  0  0  0  0  0
  1  2  1  0
  2  3  1  0
  2  4  1  0
  2  5  1  0
  5  6  1  0
  6  7  1  0
  7  8  1  0
  7  9  1  0
  9 10  1  0
 10 11  1  0
 11 12  2  0
 12 13  1  0
 13 14  2  0
 14 15  1  0
 15 16  1  0
 16 17  1  0
 17 18  1  1
 17 19  1  0
 19 20  1  1
 19 21  1  0
 21 22  1  0
 22 11  1  0
 22 15  2  0
M  END
$$$$
62182
     RDKit          2D

 21 22  0  0  0  0  0  0  0  0999 V2000
    9.5490   -3.1471    0.0000 C   0  0  0  0  0  0  0  0  0  0  0  0
    8.2500   -3.8971    0.0000 C   0  0  0  0  0  0  0  0  0  0  0  0
    6.9510   -4.6471    0.0000 C   0  0  0  0  0  0  0  0  0  0  0  0
    9.0000   -5.1962    0.0000 C   0  0  0  0  0  0  0  0  0  0  0  0
    7.5000   -2.5981    0.0000 N   0  0  0  0  0  0  0  0  0  0  0  0
    6.0000   -2.5981    0.0000 C   0  0  0  0  0  0  0  0  0  0  0  0
    5.2500   -1.2990    0.0000 C   0  0  0  0  0  0  0  0  0  0  0  0
    6.0000    0.0000    0.0000 O   0  0  0  0  0  0  0  0  0  0  0  0
    3.7500   -1.2990    0.0000 C   0  0  0  0  0  0  0  0  0  0  0  0
    3.0000    0.0000    0.0000 O   0  0  0  0  0  0  0  0  0  0  0  0
    1.5000    0.0000    0.0000 C   0  0  0  0  0  0  0  0  0  0  0  0
    0.7500   -1.2990    0.0000 C   0  0  0  0  0  0  0  0  0  0  0  0
   -0.7500   -1.2990    0.0000 C   0  0  0  0  0  0  0  0  0  0  0  0
   -1.5000    0.0000    0.0000 C   0  0  0  0  0  0  0  0  0  0  0  0
   -0.7500    1.2990    0.0000 C   0  0  0  0  0  0  0  0  0  0  0  0
   -1.5000    2.5981    0.0000 N   0  0  0  0  0  0  0  0  0  0  0  0
   -0.7500    3.8971    0.0000 C   0  0  0  0  0  0  0  0  0  0  0  0
   -1.5000    5.1962    0.0000 O   0  0  0  0  0  0  0  0  0  0  0  0
    0.7500    3.8971    0.0000 C   0  0  0  0  0  0  0  0  0  0  0  0
    1.5000    2.5981    0.0000 C   0  0  0  0  0  0  0  0  0  0  0  0
    0.7500    1.2990    0.0000 C   0  0  0  0  0  0  0  0  0  0  0  0
  1  2  1  0
  2  3  1  0
  2  4  1  0
  2  5  1  0
  5  6  1  0
  6  7  1  0
  7  8  1  0
  7  9  1  0
  9 10  1  0
 10 11  1  0
 11 12  2  0
 12 13  1  0
 13 14  2  0
 14 15  1  0
 15 16  1  0
 16 17  1  0
 17 18  2  0
 17 19  1  0
 19 20  1  0
 20 21  1  0
 21 11  1  0
 21 15  2  0
M  END
$$$$
254975
     RDKit          2D

 21 22  0  0  0  0  0  0  0  0999 V2000
    9.5490   -3.1471    0.0000 C   0  0  0  0  0  0  0  0  0  0  0  0
    8.2500   -3.8971    0.0000 C   0  0  0  0  0  0  0  0  0  0  0  0
    6.9510   -4.6471    0.0000 C   0  0  0  0  0  0  0  0  0  0  0  0
    9.0000   -5.1962    0.0000 C   0  0  0  0  0  0  0  0  0  0  0  0
    7.5000   -2.5981    0.0000 N   0  0  0  0  0  0  0  0  0  0  0  0
    6.0000   -2.5981    0.0000 C   0  0  0  0  0  0  0  0  0  0  0  0
    5.2500   -1.2990    0.0000 C   0  0  0  0  0  0  0  0  0  0  0  0
    6.0000    0.0000    0.0000 O   0  0  0  0  0  0  0  0  0  0  0  0
    3.7500   -1.2990    0.0000 C   0  0  0  0  0  0  0  0  0  0  0  0
    3.0000    0.0000    0.0000 O   0  0  0  0  0  0  0  0  0  0  0  0
    1.5000    0.0000    0.0000 C   0  0  0  0  0  0  0  0  0  0  0  0
    0.7500   -1.2990    0.0000 C   0  0  0  0  0  0  0  0  0  0  0  0
   -0.7500   -1.2990    0.0000 C   0  0  0  0  0  0  0  0  0  0  0  0
   -1.5000    0.0000    0.0000 C   0  0  0  0  0  0  0  0  0  0  0  0
   -0.7500    1.2990    0.0000 C   0  0  0  0  0  0  0  0  0  0  0  0
    0.7500    1.2990    0.0000 C   0  0  0  0  0  0  0  0  0  0  0  0
    1.5000    2.5981    0.0000 C   0  0  0  0  0  0  0  0  0  0  0  0
    0.8899    3.9684    0.0000 C   0  0  0  0  0  0  0  0  0  0  0  0
    2.0046    4.9721    0.0000 C   0  0  0  0  0  0  0  0  0  0  0  0
    3.3037    4.2221    0.0000 C   0  0  0  0  0  0  0  0  0  0  0  0
    2.9918    2.7549    0.0000 C   0  0  0  0  0  0  0  0  0  0  0  0
  1  2  1  0
  2  3  1  0
  2  4  1  0
  2  5  1  0
  5  6  1  0
  6  7  1  0
  7  8  1  1
  7  9  1  0
  9 10  1  0
 10 11  1  0
 11 12  2  0
 12 13  1  0
 13 14  2  0
 14 15  1  0
 15 16  2  0
 16 17  1  0
 17 18  1  0
 18 19  1  0
 19 20  1  0
 20 21  1  0
 16 11  1  0
 21 17  1  0
M  END
$$$$
674314
     RDKit          2D

 26 26  0  0  0  0  0  0  0  0999 V2000
    9.5490   -3.1471    0.0000 C   0  0  0  0  0  0  0  0  0  0  0  0
    8.2500   -3.8971    0.0000 C   0  0  0  0  0  0  0  0  0  0  0  0
    6.9510   -4.6471    0.0000 C   0  0  0  0  0  0  0  0  0  0  0  0
    9.0000   -5.1962    0.0000 C   0  0  0  0  0  0  0  0  0  0  0  0
    7.5000   -2.5981    0.0000 N   0  0  0  0  0  0  0  0  0  0  0  0
    6.0000   -2.5981    0.0000 C   0  0  0  0  0  0  0  0  0  0  0  0
    5.2500   -1.2990    0.0000 C   0  0  0  0  0  0  0  0  0  0  0  0
    6.0000    0.0000    0.0000 O   0  0  0  0  0  0  0  0  0  0  0  0
    3.7500   -1.2990    0.0000 C   0  0  0  0  0  0  0  0  0  0  0  0
    3.0000    0.0000    0.0000 O   0  0  0  0  0  0  0  0  0  0  0  0
    1.5000    0.0000    0.0000 C   0  0  0  0  0  0  0  0  0  0  0  0
    0.7500   -1.2990    0.0000 C   0  0  0  0  0  0  0  0  0  0  0  0
   -0.7500   -1.2990    0.0000 C   0  0  0  0  0  0  0  0  0  0  0  0
   -1.5000    0.0000    0.0000 C   0  0  0  0  0  0  0  0  0  0  0  0
   -0.7500    1.2990    0.0000 C   0  0  0  0  0  0  0  0  0  0  0  0
    0.7500    1.2990    0.0000 C   0  0  0  0  0  0  0  0  0  0  0  0
    1.5000    2.5981    0.0000 C   0  0  0  0  0  0  0  0  0  0  0  0
    0.8899    3.9684    0.0000 C   0  0  0  0  0  0  0  0  0  0  0  0
    2.0046    4.9721    0.0000 C   0  0  0  0  0  0  0  0  0  0  0  0
    3.3037    4.2221    0.0000 C   0  0  0  0  0  0  0  0  0  0  0  0
    2.9918    2.7549    0.0000 C   0  0  0  0  0  0  0  0  0  0  0  0
    0.0000    6.5211    0.0000 O   0  0  0  0  0  0  0  0  0  0  0  0
    1.2990    7.2711    0.0000 S   0  0  0  0  0  0  0  0  0  0  0  0
    2.0490    5.9721    0.0000 O   0  0  0  0  0  0  0  0  0  0  0  0
    0.5490    8.5702    0.0000 O   0  0  0  0  0  0  0  0  0  0  0  0
    2.5981    8.0211    0.0000 O   0  0  0  0  0  0  0  0  0  0  0  0
  1  2  1  0
  2  3  1  0
  2  4  1  0
  2  5  1  0
  5  6  1  0
  6  7  1  0
  7  8  1  1
  7  9  1  0
  9 10  1  0
 10 11  1  0
 11 12  2  0
 12 13  1  0
 13 14  2  0
 14 15  1  0
 15 16  2  0
 16 17  1  0
 17 18  1  0
 18 19  1  0
 19 20  1  0
 20 21  1  0
 22 23  1  0
 23 24  2  0
 23 25  2  0
 23 26  1  0
 16 11  1  0
 21 17  1  0
M  END
$$$$
8531
     RDKit          2D

 21 22  0  0  0  0  0  0  0  0999 V2000
   -6.3289   -8.7202    0.0000 C   0  0  0  0  0  0  0  0  0  0  0  0
   -4.9023   -9.1838    0.0000 C   0  0  0  0  0  0  0  0  0  0  0  0
   -3.4758   -9.6473    0.0000 C   0  0  0  0  0  0  0  0  0  0  0  0
   -5.3659  -10.6103    0.0000 C   0  0  0  0  0  0  0  0  0  0  0  0
   -4.4388   -7.7572    0.0000 N   0  0  0  0  0  0  0  0  0  0  0  0
   -2.9716   -7.4453    0.0000 C   0  0  0  0  0  0  0  0  0  0  0  0
   -2.5081   -6.0187    0.0000 C   0  0  0  0  0  0  0  0  0  0  0  0
   -3.5118   -4.9040    0.0000 O   0  0  0  0  0  0  0  0  0  0  0  0
   -1.0409   -5.7068    0.0000 C   0  0  0  0  0  0  0  0  0  0  0  0
   -0.5773   -4.2803    0.0000 O   0  0  0  0  0  0  0  0  0  0  0  0
    0.8899   -3.9684    0.0000 C   0  0  0  0  0  0  0  0  0  0  0  0
    2.0046   -4.9721    0.0000 N   0  0  0  0  0  0  0  0  0  0  0  0
    3.3037   -4.2221    0.0000 S   0  0  0  0  0  0  0  0  0  0  0  0
    2.9918   -2.7549    0.0000 N   0  0  0  0  0  0  0  0  0  0  0  0
    1.5000   -2.5981    0.0000 C   0  0  0  0  0  0  0  0  0  0  0  0
    0.7500   -1.2990    0.0000 N   0  0  0  0  0  0  0  0  0  0  0  0
    1.5000    0.0000    0.0000 C   0  0  0  0  0  0  0  0  0  0  0  0
    0.7500    1.2990    0.0000 C   0  0  0  0  0  0  0  0  0  0  0  0
   -0.7500    1.2990    0.0000 O   0  0  0  0  0  0  0  0  0  0  0  0
   -1.5000    0.0000    0.0000 C   0  0  0  0  0  0  0  0  0  0  0  0
   -0.7500   -1.2990    0.0000 C   0  0  0  0  0  0  0  0  0  0  0  0
  1  2  1  0
  2  3  1  0
  2  4  1  0
  2  5  1  0
  5  6  1  0
  6  7  1  0
  7  8  1  6
  7  9  1  0
  9 10  1  0
 10 11  1  0
 11 12  2  0
 12 13  1  0
 13 14  1  0
 14 15  2  0
 15 16  1  0
 16 17  1  0
 17 18  1  0
 18 19  1  0
 19 20  1  0
 20 21  1  0
 15 11  1  0
 21 16  1  0
M  END
$$$$
674821
     RDKit          2D

 29 29  0  0  0  0  0  0  0  0999 V2000
   -6.3289   -8.7202    0.0000 C   0  0  0  0  0  0  0  0  0  0  0  0
   -4.9023   -9.1838    0.0000 C   0  0  0  0  0  0  0  0  0  0  0  0
   -3.4758   -9.6473    0.0000 C   0  0  0  0  0  0  0  0  0  0  0  0
   -5.3659  -10.6103    0.0000 C   0  0  0  0  0  0  0  0  0  0  0  0
   -4.4388   -7.7572    0.0000 N   0  0  0  0  0  0  0  0  0  0  0  0
   -2.9716   -7.4453    0.0000 C   0  0  0  0  0  0  0  0  0  0  0  0
   -2.5081   -6.0187    0.0000 C   0  0  0  0  0  0  0  0  0  0  0  0
   -3.5118   -4.9040    0.0000 O   0  0  0  0  0  0  0  0  0  0  0  0
   -1.0409   -5.7068    0.0000 C   0  0  0  0  0  0  0  0  0  0  0  0
   -0.5773   -4.2803    0.0000 O   0  0  0  0  0  0  0  0  0  0  0  0
    0.8899   -3.9684    0.0000 C   0  0  0  0  0  0  0  0  0  0  0  0
    2.0046   -4.9721    0.0000 N   0  0  0  0  0  0  0  0  0  0  0  0
    3.3037   -4.2221    0.0000 S   0  0  0  0  0  0  0  0  0  0  0  0
    2.9918   -2.7549    0.0000 N   0  0  0  0  0  0  0  0  0  0  0  0
    1.5000   -2.5981    0.0000 C   0  0  0  0  0  0  0  0  0  0  0  0
    0.7500   -1.2990    0.0000 N   0  0  0  0  0  0  0  0  0  0  0  0
    1.5000    0.0000    0.0000 C   0  0  0  0  0  0  0  0  0  0  0  0
    0.7500    1.2990    0.0000 C   0  0  0  0  0  0  0  0  0  0  0  0
   -0.7500    1.2990    0.0000 O   0  0  0  0  0  0  0  0  0  0  0  0
   -1.5000    0.0000    0.0000 C   0  0  0  0  0  0  0  0  0  0  0  0
   -0.7500   -1.2990    0.0000 C   0  0  0  0  0  0  0  0  0  0  0  0
    4.3037   -1.2990    0.0000 O   0  0  0  0  0  0  0  0  0  0  0  0
    5.8037   -1.2990    0.0000 C   0  0  0  0  0  0  0  0  0  0  0  0
    6.5537   -2.5981    0.0000 O   0  0  0  0  0  0  0  0  0  0  0  0
    6.5537    0.0000    0.0000 C   0  0  0  0  0  0  0  0  0  0  0  0
    8.0537    0.0000    0.0000 C   0  0  0  0  0  0  0  0  0  0  0  0
    8.8037   -1.2990    0.0000 C   0  0  0  0  0  0  0  0  0  0  0  0
    8.0537   -2.5981    0.0000 O   0  0  0  0  0  0  0  0  0  0  0  0
   10.3037   -1.2990    0.0000 O   0  0  0  0  0  0  0  0  0  0  0  0
  1  2  1  0
  2  3  1  0
  2  4  1  0
  2  5  1  0
  5  6  1  0
  6  7  1  0
  7  8  1  6
  7  9  1  0
  9 10  1  0
 10 11  1  0
 11 12  2  0
 12 13  1  0
 13 14  1  0
 14 15  2  0
 15 16  1  0
 16 17  1  0
 17 18  1  0
 18 19  1  0
 19 20  1  0
 20 21  1  0
 22 23  1  0
 23 24  2  0
 23 25  1  0
 25 26  2  0
 26 27  1  0
 27 28  2  0
 27 29  1  0
 15 11  1  0
 21 16  1  0
M  END
$$$$
674789
     RDKit          2D

 15 14  0  0  0  0  0  0  0  0999 V2000
    0.0000    0.0000    0.0000 C   0  0  0  0  0  0  0  0  0  0  0  0
    1.2990    0.7500    0.0000 C   0  0  0  0  0  0  0  0  0  0  0  0
    2.5981    1.5000    0.0000 C   0  0  0  0  0  0  0  0  0  0  0  0
    2.0490   -0.5490    0.0000 C   0  0  0  0  0  0  0  0  0  0  0  0
    0.5490    2.0490    0.0000 Si  0  0  0  0  0  4  0  0  0  0  0  0
    1.2990    3.3481    0.0000 O   0  0  0  0  0  0  0  0  0  0  0  0
    0.5490    4.6471    0.0000 Si  0  0  0  0  0  4  0  0  0  0  0  0
   -0.7500    3.8971    0.0000 C   0  0  0  0  0  0  0  0  0  0  0  0
    1.8481    5.3971    0.0000 C   0  0  0  0  0  0  0  0  0  0  0  0
   -0.2010    5.9462    0.0000 O   0  0  0  0  0  0  0  0  0  0  0  0
   -1.7010    5.9462    0.0000 Si  0  0  0  0  0  4  0  0  0  0  0  0
   -2.4510    7.2452    0.0000 C   0  0  0  0  0  0  0  0  0  0  0  0
   -3.7500    6.4952    0.0000 C   0  0  0  0  0  0  0  0  0  0  0  0
   -1.1519    7.9952    0.0000 C   0  0  0  0  0  0  0  0  0  0  0  0
   -3.2010    8.5442    0.0000 C   0  0  0  0  0  0  0  0  0  0  0  0
  1  2  1  0
  2  3  1  0
  2  4  1  0
  2  5  1  0
  5  6  1  0
  6  7  1  0
  7  8  1  0
  7  9  1  0
  7 10  1  0
 10 11  1  0
 11 12  1  0
 12 13  1  0
 12 14  1  0
 12 15  1  0
M  END
$$$$
675220
     RDKit          2D

 12 12  0  0  0  0  0  0  0  0999 V2000
    2.4510   -2.0490    0.0000 C   0  0  0  0  0  0  0  0  0  0  0  0
    3.7500   -1.2990    0.0000 C   0  0  0  0  0  0  0  0  0  0  0  0
    5.0490   -0.5490    0.0000 C   0  0  0  0  0  0  0  0  0  0  0  0
    4.5000   -2.5981    0.0000 N   0  0  0  0  0  0  0  0  0  0  0  0
    3.0000    0.0000    0.0000 C   0  0  0  0  0  0  0  0  0  0  0  0
    1.5000    0.0000    0.0000 C   0  0  0  0  0  0  0  0  0  0  0  0
    0.7500   -1.2990    0.0000 C   0  0  0  0  0  0  0  0  0  0  0  0
   -0.7500   -1.2990    0.0000 C   0  0  0  0  0  0  0  0  0  0  0  0
   -1.5000    0.0000    0.0000 C   0  0  0  0  0  0  0  0  0  0  0  0
   -3.0000    0.0000    0.0000 Cl  0  0  0  0  0  0  0  0  0  0  0  0
   -0.7500    1.2990    0.0000 C   0  0  0  0  0  0  0  0  0  0  0  0
    0.7500    1.2990    0.0000 C   0  0  0  0  0  0  0  0  0  0  0  0
  1  2  1  0
  2  3  1  0
  2  4  1  0
  2  5  1  0
  5  6  1  0
  6  7  2  0
  7  8  1  0
  8  9  2  0
  9 10  1  0
  9 11  1  0
 11 12  2  0
 12  6  1  0
M  END
$$$$
453532
     RDKit          2D

 11 11  0  0  0  0  0  0  0  0999 V2000
    2.4510   -2.0490    0.0000 C   0  0  0  0  0  0  0  0  0  0  0  0
    3.7500   -1.2990    0.0000 C   0  0  0  0  0  0  0  0  0  0  0  0
    5.0490   -0.5490    0.0000 C   0  0  0  0  0  0  0  0  0  0  0  0
    4.5000   -2.5981    0.0000 N   0  0  0  0  0  0  0  0  0  0  0  0
    3.0000    0.0000    0.0000 C   0  0  0  0  0  0  0  0  0  0  0  0
    1.5000    0.0000    0.0000 C   0  0  0  0  0  0  0  0  0  0  0  0
    0.7500   -1.2990    0.0000 C   0  0  0  0  0  0  0  0  0  0  0  0
   -0.7500   -1.2990    0.0000 C   0  0  0  0  0  0  0  0  0  0  0  0
   -1.5000    0.0000    0.0000 C   0  0  0  0  0  0  0  0  0  0  0  0
   -0.7500    1.2990    0.0000 C   0  0  0  0  0  0  0  0  0  0  0  0
    0.7500    1.2990    0.0000 C   0  0  0  0  0  0  0  0  0  0  0  0
  1  2  1  0
  2  3  1  0
  2  4  1  0
  2  5  1  0
  5  6  1  0
  6  7  2  0
  7  8  1  0
  8  9  2  0
  9 10  1  0
 10 11  2  0
 11  6  1  0
M  END
$$$$
47447
     RDKit          2D

 41 45  0  0  0  0  0  0  0  0999 V2000
    0.5490  -10.9413    0.0000 C   0  0  0  0  0  0  0  0  0  0  0  0
   -0.7500  -11.6913    0.0000 C   0  0  0  0  0  0  0  0  0  0  0  0
   -2.0490  -12.4413    0.0000 C   0  0  0  0  0  0  0  0  0  0  0  0
   -0.0000  -12.9904    0.0000 O   0  0  0  0  0  0  0  0  0  0  0  0
   -1.5000  -10.3923    0.0000 C   0  0  0  0  0  0  0  0  0  0  0  0
   -3.0000  -10.3923    0.0000 C   0  0  0  0  0  0  0  0  0  0  0  0
   -3.7500   -9.0933    0.0000 C   0  0  0  0  0  0  0  0  0  0  0  0
   -3.0000   -7.7942    0.0000 C   0  0  0  0  0  0  0  0  0  0  0  0
   -1.5000   -7.7942    0.0000 C   0  0  0  0  0  0  0  0  0  0  0  0
   -0.7500   -9.0933    0.0000 C   0  0  0  0  0  0  0  0  0  0  0  0
    0.7500   -9.0933    0.0000 C   0  0  0  0  0  0  0  0  0  0  0  0
    1.5000   -7.7942    0.0000 C   0  0  0  0  0  0  0  0  0  0  0  0
    3.0000   -7.7942    0.0000 C   0  0  0  0  0  0  0  0  0  0  0  0
    3.7500   -9.0933    0.0000 S   0  0  0  0  0  0  0  0  0  0  0  0
    3.0000  -10.3923    0.0000 C   0  0  0  0  0  0  0  0  0  0  0  0
    3.7500  -11.6913    0.0000 C   0  0  0  0  0  0  0  0  0  0  0  0
    5.1595  -11.1783    0.0000 C   0  0  0  0  0  0  0  0  0  0  0  0
    6.3086  -12.1425    0.0000 C   0  0  0  0  0  0  0  0  0  0  0  0
    6.0481  -13.6197    0.0000 O   0  0  0  0  0  0  0  0  0  0  0  0
    7.7181  -11.6295    0.0000 O   0  0  0  0  0  0  0  0  0  0  0  0
    4.0105  -13.1686    0.0000 C   0  0  0  0  0  0  0  0  0  0  0  0
    2.6009  -12.6555    0.0000 C   0  0  0  0  0  0  0  0  0  0  0  0
    3.7500   -6.4952    0.0000 C   0  0  0  0  0  0  0  0  0  0  0  0
    5.2500   -6.4952    0.0000 C   0  0  0  0  0  0  0  0  0  0  0  0
    6.0000   -5.1962    0.0000 C   0  0  0  0  0  0  0  0  0  0  0  0
    5.2500   -3.8971    0.0000 C   0  0  0  0  0  0  0  0  0  0  0  0
    3.7500   -3.8971    0.0000 C   0  0  0  0  0  0  0  0  0  0  0  0
    3.0000   -2.5981    0.0000 C   0  0  0  0  0  0  0  0  0  0  0  0
    1.5000   -2.5981    0.0000 C   0  0  0  0  0  0  0  0  0  0  0  0
    0.7500   -1.2990    0.0000 C   0  0  0  0  0  0  0  0  0  0  0  0
    1.5000    0.0000    0.0000 C   0  0  0  0  0  0  0  0  0  0  0  0
    0.7500    1.2990    0.0000 C   0  0  0  0  0  0  0  0  0  0  0  0
   -0.7500    1.2990    0.0000 C   0  0  0  0  0  0  0  0  0  0  0  0
   -1.5000    2.5981    0.0000 C   0  0  0  0  0  0  0  0  0  0  0  0
   -3.0000    2.5981    0.0000 C   0  0  0  0  0  0  0  0  0  0  0  0
   -3.7500    1.2990    0.0000 C   0  0  0  0  0  0  0  0  0  0  0  0
   -5.2500    1.2990    0.0000 Cl  0  0  0  0  0  0  0  0  0  0  0  0
   -3.0000    0.0000    0.0000 C   0  0  0  0  0  0  0  0  0  0  0  0
   -1.5000    0.0000    0.0000 C   0  0  0  0  0  0  0  0  0  0  0  0
   -0.7500   -1.2990    0.0000 N   0  0  0  0  0  0  0  0  0  0  0  0
    3.0000   -5.1962    0.0000 C   0  0  0  0  0  0  0  0  0  0  0  0
  1  2  1  0
  2  3  1  0
  2  4  1  0
  2  5  1  0
  5  6  2  0
  6  7  1  0
  7  8  2  0
  8  9  1  0
  9 10  2  0
 10 11  1  0
 11 12  1  0
 13 12  1  6
 13 14  1  0
 14 15  1  0
 15 16  1  0
 16 17  1  0
 17 18  1  0
 18 19  2  0
 18 20  1  0
 16 21  1  0
 21 22  1  0
 13 23  1  0
 23 24  2  0
 24 25  1  0
 25 26  2  0
 26 27  1  0
 27 28  1  0
 28 29  2  0
 29 30  1  0
 30 31  2  0
 31 32  1  0
 32 33  2  0
 33 34  1  0
 34 35  2  0
 35 36  1  0
 36 37  1  0
 36 38  2  0
 38 39  1  0
 39 40  2  0
 27 41  2  0
 10  5  1  0
 22 16  1  0
 41 23  1  0
 40 30  1  0
 39 33  1  0
M  END
$$$$
100310
     RDKit          2D

 22 23  0  0  0  0  0  0  0  0999 V2000
    5.0490   -0.5490    0.0000 C   0  0  0  0  0  0  0  0  0  0  0  0
    3.7500   -1.2990    0.0000 C   0  0  0  0  0  0  0  0  0  0  0  0
    2.4510   -2.0490    0.0000 C   0  0  0  0  0  0  0  0  0  0  0  0
    3.0000    0.0000    0.0000 O   0  0  0  0  0  0  0  0  0  0  0  0
    1.5000    0.0000    0.0000 C   0  0  0  0  0  0  0  0  0  0  0  0
    0.7500   -1.2990    0.0000 C   0  0  0  0  0  0  0  0  0  0  0  0
   -0.7500   -1.2990    0.0000 C   0  0  0  0  0  0  0  0  0  0  0  0
   -1.5000    0.0000    0.0000 C   0  0  0  0  0  0  0  0  0  0  0  0
   -0.7500    1.2990    0.0000 C   0  0  0  0  0  0  0  0  0  0  0  0
    0.7500    1.2990    0.0000 C   0  0  0  0  0  0  0  0  0  0  0  0
   -3.0000    0.0000    0.0000 C   0  0  0  0  0  0  0  0  0  0  0  0
   -3.7500   -1.2990    0.0000 O   0  0  0  0  0  0  0  0  0  0  0  0
   -3.7500    1.2990    0.0000 C   0  0  0  0  0  0  0  0  0  0  0  0
   -3.0000    2.5981    0.0000 C   0  0  0  0  0  0  0  0  0  0  0  0
   -3.7500    3.8971    0.0000 C   0  0  0  0  0  0  0  0  0  0  0  0
   -5.2500    3.8971    0.0000 C   0  0  0  0  0  0  0  0  0  0  0  0
   -6.0000    5.1962    0.0000 Cl  0  0  0  0  0  0  0  0  0  0  0  0
   -6.0000    2.5981    0.0000 C   0  0  0  0  0  0  0  0  0  0  0  0
   -5.2500    1.2990    0.0000 C   0  0  0  0  0  0  0  0  0  0  0  0
    4.5000   -2.5981    0.0000 C   0  0  0  0  0  0  0  0  0  0  0  0
    6.0000   -2.5981    0.0000 O   0  0  0  0  0  0  0  0  0  0  0  0
    3.7500   -3.8971    0.0000 O   0  0  0  0  0  0  0  0  0  0  0  0
  1  2  1  0
  2  3  1  0
  2  4  1  0
  4  5  1  0
  5  6  2  0
  6  7  1  0
  7  8  2  0
  8  9  1  0
  9 10  2  0
  8 11  1  0
 11 12  2  0
 11 13  1  0
 13 14  2  0
 14 15  1  0
 15 16  2  0
 16 17  1  0
 16 18  1  0
 18 19  2  0
  2 20  1  0
 20 21  2  0
 20 22  1  0
 10  5  1  0
 19 13  1  0
M  END
$$$$
675696
     RDKit          2D

 29 29  0  0  0  0  0  0  0  0999 V2000
    5.0490   -0.5490    0.0000 C   0  0  0  0  0  0  0  0  0  0  0  0
    3.7500   -1.2990    0.0000 C   0  0  0  0  0  0  0  0  0  0  0  0
    2.4510   -2.0490    0.0000 C   0  0  0  0  0  0  0  0  0  0  0  0
    3.0000    0.0000    0.0000 O   0  0  0  0  0  0  0  0  0  0  0  0
    1.5000    0.0000    0.0000 C   0  0  0  0  0  0  0  0  0  0  0  0
    0.7500   -1.2990    0.0000 C   0  0  0  0  0  0  0  0  0  0  0  0
   -0.7500   -1.2990    0.0000 C   0  0  0  0  0  0  0  0  0  0  0  0
   -1.5000    0.0000    0.0000 C   0  0  0  0  0  0  0  0  0  0  0  0
   -0.7500    1.2990    0.0000 C   0  0  0  0  0  0  0  0  0  0  0  0
    0.7500    1.2990    0.0000 C   0  0  0  0  0  0  0  0  0  0  0  0
   -3.0000    0.0000    0.0000 C   0  0  0  0  0  0  0  0  0  0  0  0
   -3.7500   -1.2990    0.0000 O   0  0  0  0  0  0  0  0  0  0  0  0
   -3.7500    1.2990    0.0000 C   0  0  0  0  0  0  0  0  0  0  0  0
   -3.0000    2.5981    0.0000 C   0  0  0  0  0  0  0  0  0  0  0  0
   -3.7500    3.8971    0.0000 C   0  0  0  0  0  0  0  0  0  0  0  0
   -5.2500    3.8971    0.0000 C   0  0  0  0  0  0  0  0  0  0  0  0
   -6.0000    5.1962    0.0000 Cl  0  0  0  0  0  0  0  0  0  0  0  0
   -6.0000    2.5981    0.0000 C   0  0  0  0  0  0  0  0  0  0  0  0
   -5.2500    1.2990    0.0000 C   0  0  0  0  0  0  0  0  0  0  0  0
    4.5000   -2.5981    0.0000 C   0  0  0  0  0  0  0  0  0  0  0  0
    6.0000   -2.5981    0.0000 O   0  0  0  0  0  0  0  0  0  0  0  0
    3.7500   -3.8971    0.0000 O   0  0  0  0  0  1  0  0  0  0  0  0
    0.0000    6.7452    0.0000 C   0  0  0  0  0  0  0  0  0  0  0  0
    1.2990    7.4952    0.0000 N   0  0  0  0  0  4  0  0  0  0  0  0
    2.5981    8.2452    0.0000 C   0  0  0  0  0  0  0  0  0  0  0  0
    2.0490    6.1962    0.0000 C   0  0  0  0  0  0  0  0  0  0  0  0
    0.5490    8.7942    0.0000 C   0  0  0  0  0  0  0  0  0  0  0  0
    1.2990   10.0933    0.0000 C   0  0  0  0  0  0  0  0  0  0  0  0
    0.5490   11.3923    0.0000 O   0  0  0  0  0  0  0  0  0  0  0  0
  1  2  1  0
  2  3  1  0
  2  4  1  0
  4  5  1  0
  5  6  2  0
  6  7  1  0
  7  8  2  0
  8  9  1  0
  9 10  2  0
  8 11  1  0
 11 12  2  0
 11 13  1  0
 13 14  2  0
 14 15  1  0
 15 16  2  0
 16 17  1  0
 16 18  1  0
 18 19  2  0
  2 20  1  0
 20 21  2  0
 20 22  1  0
 23 24  1  0
 24 25  1  0
 24 26  1  0
 24 27  1  0
 27 28  1  0
 28 29  1  0
 10  5  1  0
 19 13  1  0
M  CHG  2  22  -1  24   1
M  END
$$$$
369179
     RDKit          2D

  9  8  0  0  0  0  0  0  0  0999 V2000
    0.0000    0.0000    0.0000 C   0  0  0  0  0  0  0  0  0  0  0  0
    1.2990    0.7500    0.0000 C   0  0  0  0  0  0  0  0  0  0  0  0
    2.5981    1.5000    0.0000 C   0  0  0  0  0  0  0  0  0  0  0  0
    0.5490    2.0490    0.0000 S   0  0  0  0  0  0  0  0  0  0  0  0
    2.0490   -0.5490    0.0000 C   0  0  0  0  0  0  0  0  0  0  0  0
    1.2990   -1.8481    0.0000 N   0  0  0  0  0  0  0  0  0  0  0  0
    3.5490   -0.5490    0.0000 C   0  0  0  0  0  0  0  0  0  0  0  0
    4.2990    0.7500    0.0000 O   0  0  0  0  0  0  0  0  0  0  0  0
    4.2990   -1.8481    0.0000 O   0  0  0  0  0  0  0  0  0  0  0  0
  1  2  1  0
  2  3  1  0
  2  4  1  0
  2  5  1  0
  5  6  1  6
  5  7  1  0
  7  8  2  0
  7  9  1  0
M  END
$$$$
52087
     RDKit          2D

 19 19  0  0  0  0  0  0  0  0999 V2000
    6.0000   -2.5981    0.0000 C   0  0  0  0  0  0  0  0  0  0  0  0
    5.2500   -1.2990    0.0000 C   0  0  0  0  0  0  0  0  0  0  0  0
    6.0000    0.0000    0.0000 C   0  0  0  0  0  0  0  0  0  0  0  0
    3.7500   -1.2990    0.0000 C   0  0  0  0  0  0  0  0  0  0  0  0
    3.0000   -2.5981    0.0000 O   0  0  0  0  0  0  0  0  0  0  0  0
    3.0000    0.0000    0.0000 N   0  0  0  0  0  0  0  0  0  0  0  0
    1.5000    0.0000    0.0000 C   0  0  0  0  0  0  0  0  0  0  0  0
    0.7500   -1.2990    0.0000 C   0  0  0  0  0  0  0  0  0  0  0  0
   -0.7500   -1.2990    0.0000 C   0  0  0  0  0  0  0  0  0  0  0  0
   -1.5000    0.0000    0.0000 C   0  0  0  0  0  0  0  0  0  0  0  0
   -0.7500    1.2990    0.0000 C   0  0  0  0  0  0  0  0  0  0  0  0
    0.7500    1.2990    0.0000 C   0  0  0  0  0  0  0  0  0  0  0  0
   -1.5000    2.5981    0.0000 C   0  0  0  0  0  0  0  0  0  0  0  0
   -2.2500    3.8971    0.0000 F   0  0  0  0  0  0  0  0  0  0  0  0
   -0.2010    3.3481    0.0000 F   0  0  0  0  0  0  0  0  0  0  0  0
   -2.7990    1.8481    0.0000 F   0  0  0  0  0  0  0  0  0  0  0  0
   -3.0000    0.0000    0.0000 N   0  0  0  0  0  4  0  0  0  0  0  0
   -3.7500    1.2990    0.0000 O   0  0  0  0  0  0  0  0  0  0  0  0
   -3.7500   -1.2990    0.0000 O   0  0  0  0  0  1  0  0  0  0  0  0
  1  2  1  0
  2  3  1  0
  2  4  1  0
  4  5  2  0
  4  6  1  0
  6  7  1  0
  7  8  2  0
  8  9  1  0
  9 10  2  0
 10 11  1  0
 11 12  2  0
 11 13  1  0
 13 14  1  0
 13 15  1  0
 13 16  1  0
 10 17  1  0
 17 18  2  0
 17 19  1  0
 12  7  1  0
M  CHG  2  17   1  19  -1
M  END
$$$$
1051353
     RDKit          2D

 23 23  0  0  0  0  0  0  0  0999 V2000
    9.5435   -6.7493    0.0000 C   0  0  0  0  0  0  0  0  0  0  0  0
    8.3944   -5.7851    0.0000 C   0  0  0  0  0  0  0  0  0  0  0  0
    8.6549   -4.3079    0.0000 C   0  0  0  0  0  0  0  0  0  0  0  0
    6.9849   -6.2981    0.0000 C   0  0  0  0  0  0  0  0  0  0  0  0
    6.7244   -7.7753    0.0000 O   0  0  0  0  0  0  0  0  0  0  0  0
    5.8358   -5.3339    0.0000 O   0  0  0  0  0  0  0  0  0  0  0  0
    4.4263   -5.8470    0.0000 C   0  0  0  0  0  0  0  0  0  0  0  0
    4.1658   -7.3242    0.0000 C   0  0  0  0  0  0  0  0  0  0  0  0
    3.2772   -4.8828    0.0000 O   0  0  0  0  0  0  0  0  0  0  0  0
    3.5377   -3.4056    0.0000 C   0  0  0  0  0  0  0  0  0  0  0  0
    4.9472   -2.8925    0.0000 O   0  0  0  0  0  0  0  0  0  0  0  0
    2.3886   -2.4414    0.0000 N   0  0  0  0  0  0  0  0  0  0  0  0
    2.6491   -0.9642    0.0000 C   0  0  0  0  0  0  0  0  0  0  0  0
    1.5000    0.0000    0.0000 C   0  0  0  0  0  0  0  0  0  0  0  0
    2.6491    0.9642    0.0000 C   0  0  0  0  0  0  0  0  0  0  0  0
    4.0586    0.4512    0.0000 C   0  0  0  0  0  0  0  0  0  0  0  0
    4.3191   -1.0261    0.0000 O   0  0  0  0  0  0  0  0  0  0  0  0
    5.2077    1.4153    0.0000 O   0  0  0  0  0  0  0  0  0  0  0  0
    0.7500   -1.2990    0.0000 C   0  0  0  0  0  0  0  0  0  0  0  0
   -0.7500   -1.2990    0.0000 C   0  0  0  0  0  0  0  0  0  0  0  0
   -1.5000    0.0000    0.0000 C   0  0  0  0  0  0  0  0  0  0  0  0
   -0.7500    1.2990    0.0000 C   0  0  0  0  0  0  0  0  0  0  0  0
    0.7500    1.2990    0.0000 C   0  0  0  0  0  0  0  0  0  0  0  0
  1  2  1  0
  2  3  1  0
  2  4  1  0
  4  5  2  0
  4  6  1  0
  6  7  1  0
  7  8  1  0
  7  9  1  0
  9 10  1  0
 10 11  2  0
 10 12  1  0
 12 13  1  0
 13 14  1  0
 14 15  1  0
 15 16  1  0
 16 17  2  0
 16 18  1  0
 14 19  1  0
 19 20  1  0
 20 21  1  0
 21 22  1  0
 22 23  1  0
 23 14  1  0
M  END
$$$$
417180
     RDKit          2D

 41 44  0  0  0  0  0  0  0  0999 V2000
    5.4627   -4.5501    0.0000 C   0  0  0  0  0  0  0  0  0  0  0  0
    3.9955   -4.2382    0.0000 C   0  0  0  0  0  0  0  0  0  0  0  0
    3.5320   -2.8116    0.0000 C   0  0  0  0  0  0  0  0  0  0  0  0
    2.9918   -5.3529    0.0000 C   0  0  0  0  0  0  0  0  0  0  0  0
    1.5000   -5.1962    0.0000 C   0  0  0  0  0  0  0  0  0  0  0  0
    0.7500   -3.8971    0.0000 C   0  0  0  0  0  0  0  0  0  0  0  0
   -0.7500   -3.8971    0.0000 O   0  0  0  0  0  0  0  0  0  0  0  0
    1.5000   -2.5981    0.0000 N   0  0  0  0  0  0  0  0  0  0  0  0
    0.7500   -1.2990    0.0000 C   0  0  0  0  0  0  0  0  0  0  0  0
    1.5000    0.0000    0.0000 C   0  0  0  0  0  0  0  0  0  0  0  0
    0.7500    1.2990    0.0000 C   0  0  0  0  0  0  0  0  0  0  0  0
   -0.7500    1.2990    0.0000 C   0  0  0  0  0  0  0  0  0  0  0  0
   -1.5000    0.0000    0.0000 C   0  0  0  0  0  0  0  0  0  0  0  0
   -0.7500   -1.2990    0.0000 C   0  0  0  0  0  0  0  0  0  0  0  0
    0.8899   -6.5665    0.0000 C   0  0  0  0  0  0  0  0  0  0  0  0
   -0.5773   -6.8783    0.0000 C   0  0  0  0  0  0  0  0  0  0  0  0
   -1.5810   -5.7636    0.0000 C   0  0  0  0  0  0  0  0  0  0  0  0
   -3.0482   -6.0755    0.0000 C   0  0  0  0  0  0  0  0  0  0  0  0
   -3.5118   -7.5021    0.0000 C   0  0  0  0  0  0  0  0  0  0  0  0
   -2.5081   -8.6168    0.0000 C   0  0  0  0  0  0  0  0  0  0  0  0
   -1.0409   -8.3049    0.0000 C   0  0  0  0  0  0  0  0  0  0  0  0
    2.0046   -7.5702    0.0000 C   0  0  0  0  0  0  0  0  0  0  0  0
    1.8478   -9.0619    0.0000 C   0  0  0  0  0  0  0  0  0  0  0  0
    0.4775   -9.6721    0.0000 C   0  0  0  0  0  0  0  0  0  0  0  0
    0.3207  -11.1638    0.0000 C   0  0  0  0  0  0  0  0  0  0  0  0
    1.5342  -12.0455    0.0000 C   0  0  0  0  0  0  0  0  0  0  0  0
    1.3774  -13.5373    0.0000 F   0  0  0  0  0  0  0  0  0  0  0  0
    2.9046  -11.4354    0.0000 C   0  0  0  0  0  0  0  0  0  0  0  0
    3.0613   -9.9436    0.0000 C   0  0  0  0  0  0  0  0  0  0  0  0
    3.3037   -6.8202    0.0000 N   0  0  0  0  0  0  0  0  0  0  0  0
    4.6740   -7.4303    0.0000 C   0  0  0  0  0  0  0  0  0  0  0  0
    5.8875   -6.5486    0.0000 C   0  0  0  0  0  0  0  0  0  0  0  0
    7.2578   -7.1587    0.0000 C   0  0  0  0  0  0  0  0  0  0  0  0
    7.4146   -8.6505    0.0000 O   0  0  0  0  0  0  0  0  0  0  0  0
    8.4713   -6.2770    0.0000 C   0  0  0  0  0  0  0  0  0  0  0  0
    9.8417   -6.8871    0.0000 C   0  0  0  0  0  0  0  0  0  0  0  0
    9.9984   -8.3789    0.0000 O   0  0  0  0  0  0  0  0  0  0  0  0
   11.0552   -6.0054    0.0000 C   0  0  0  0  0  0  0  0  0  0  0  0
   12.4255   -6.6156    0.0000 C   0  0  0  0  0  0  0  0  0  0  0  0
   12.5823   -8.1073    0.0000 O   0  0  0  0  0  0  0  0  0  0  0  0
   13.6390   -5.7339    0.0000 O   0  0  0  0  0  0  0  0  0  0  0  0
  1  2  1  0
  2  3  1  0
  2  4  1  0
  4  5  2  0
  5  6  1  0
  6  7  2  0
  6  8  1  0
  8  9  1  0
  9 10  2  0
 10 11  1  0
 11 12  2  0
 12 13  1  0
 13 14  2  0
  5 15  1  0
 15 16  1  0
 16 17  2  0
 17 18  1  0
 18 19  2  0
 19 20  1  0
 20 21  2  0
 15 22  2  0
 22 23  1  0
 23 24  2  0
 24 25  1  0
 25 26  2  0
 26 27  1  0
 26 28  1  0
 28 29  2  0
 22 30  1  0
 30 31  1  0
 31 32  1  0
 32 33  1  0
 33 34  1  6
 33 35  1  0
 35 36  1  0
 36 37  1  6
 36 38  1  0
 38 39  1  0
 39 40  2  0
 39 41  1  0
 30  4  1  0
 14  9  1  0
 21 16  1  0
 29 23  1  0
M  END
$$$$
1369604
     RDKit          2D

 54 58  0  0  0  0  0  0  0  0999 V2000
   12.3921   -4.1746    0.0000 C   0  0  0  0  0  0  0  0  0  0  0  0
   11.0218   -3.5645    0.0000 C   0  0  0  0  0  0  0  0  0  0  0  0
   10.8650   -2.0727    0.0000 C   0  0  0  0  0  0  0  0  0  0  0  0
    9.8083   -4.4462    0.0000 C   0  0  0  0  0  0  0  0  0  0  0  0
    8.3817   -3.9826    0.0000 N   0  0  0  0  0  0  0  0  0  0  0  0
    7.5000   -5.1962    0.0000 C   0  0  0  0  0  0  0  0  0  0  0  0
    6.0000   -5.1962    0.0000 C   0  0  0  0  0  0  0  0  0  0  0  0
    5.2500   -6.4952    0.0000 N   0  0  0  0  0  0  0  0  0  0  0  0
    6.0000   -7.7942    0.0000 C   0  0  0  0  0  0  0  0  0  0  0  0
    3.7500   -6.4952    0.0000 C   0  0  0  0  0  0  0  0  0  0  0  0
    3.0000   -7.7942    0.0000 O   0  0  0  0  0  0  0  0  0  0  0  0
    3.0000   -5.1962    0.0000 N   0  0  0  0  0  0  0  0  0  0  0  0
    1.5000   -5.1962    0.0000 C   0  0  0  0  0  0  0  0  0  0  0  0
    0.7500   -3.8971    0.0000 C   0  0  0  0  0  0  0  0  0  0  0  0
    1.5000   -2.5981    0.0000 C   0  0  0  0  0  0  0  0  0  0  0  0
    0.7500   -1.2990    0.0000 N   0  0  0  0  0  0  0  0  0  0  0  0
    1.5000    0.0000    0.0000 C   0  0  0  0  0  0  0  0  0  0  0  0
    0.7500    1.2990    0.0000 C   0  0  0  0  0  0  0  0  0  0  0  0
   -0.7500    1.2990    0.0000 O   0  0  0  0  0  0  0  0  0  0  0  0
   -1.5000    0.0000    0.0000 C   0  0  0  0  0  0  0  0  0  0  0  0
   -0.7500   -1.2990    0.0000 C   0  0  0  0  0  0  0  0  0  0  0  0
    0.7500   -6.4952    0.0000 C   0  0  0  0  0  0  0  0  0  0  0  0
   -0.7500   -6.4952    0.0000 O   0  0  0  0  0  0  0  0  0  0  0  0
    1.5000   -7.7942    0.0000 N   0  0  0  0  0  0  0  0  0  0  0  0
    0.7500   -9.0933    0.0000 C   0  0  0  0  0  0  0  0  0  0  0  0
    1.5000  -10.3923    0.0000 C   0  0  0  0  0  0  0  0  0  0  0  0
    0.7500  -11.6913    0.0000 C   0  0  0  0  0  0  0  0  0  0  0  0
    1.5000  -12.9904    0.0000 C   0  0  0  0  0  0  0  0  0  0  0  0
    0.7500  -14.2894    0.0000 C   0  0  0  0  0  0  0  0  0  0  0  0
    1.5000  -15.5885    0.0000 C   0  0  0  0  0  0  0  0  0  0  0  0
    0.7500  -16.8875    0.0000 C   0  0  0  0  0  0  0  0  0  0  0  0
    1.5000  -18.1865    0.0000 C   0  0  0  0  0  0  0  0  0  0  0  0
    3.0000  -18.1865    0.0000 C   0  0  0  0  0  0  0  0  0  0  0  0
    3.7500  -16.8875    0.0000 C   0  0  0  0  0  0  0  0  0  0  0  0
    3.0000  -15.5885    0.0000 C   0  0  0  0  0  0  0  0  0  0  0  0
    3.0000  -12.9904    0.0000 N   0  0  0  0  0  0  0  0  0  0  0  0
    3.7500  -11.6913    0.0000 C   0  0  0  0  0  0  0  0  0  0  0  0
    3.0000  -10.3923    0.0000 O   0  0  0  0  0  0  0  0  0  0  0  0
    5.2500  -11.6913    0.0000 O   0  0  0  0  0  0  0  0  0  0  0  0
    6.0000  -10.3923    0.0000 C   0  0  0  0  0  0  0  0  0  0  0  0
    7.5000  -10.3923    0.0000 C   0  0  0  0  0  0  0  0  0  0  0  0
    8.3817  -11.6058    0.0000 C   0  0  0  0  0  0  0  0  0  0  0  0
    9.8083  -11.1423    0.0000 N   0  0  0  0  0  0  0  0  0  0  0  0
    9.8083   -9.6423    0.0000 C   0  0  0  0  0  0  0  0  0  0  0  0
    8.3817   -9.1788    0.0000 S   0  0  0  0  0  0  0  0  0  0  0  0
   -0.7500   -9.0933    0.0000 C   0  0  0  0  0  0  0  0  0  0  0  0
   -1.5000  -10.3923    0.0000 C   0  0  0  0  0  0  0  0  0  0  0  0
   -3.0000  -10.3923    0.0000 C   0  0  0  0  0  0  0  0  0  0  0  0
   -3.7500  -11.6913    0.0000 C   0  0  0  0  0  0  0  0  0  0  0  0
   -3.0000  -12.9904    0.0000 C   0  0  0  0  0  0  0  0  0  0  0  0
   -1.5000  -12.9904    0.0000 C   0  0  0  0  0  0  0  0  0  0  0  0
   -0.7500  -11.6913    0.0000 C   0  0  0  0  0  0  0  0  0  0  0  0
    8.3817   -6.4097    0.0000 C   0  0  0  0  0  0  0  0  0  0  0  0
    9.8083   -5.9462    0.0000 S   0  0  0  0  0  0  0  0  0  0  0  0
  1  2  1  0
  2  3  1  0
  2  4  1  0
  4  5  2  0
  5  6  1  0
  6  7  1  0
  7  8  1  0
  8  9  1  0
  8 10  1  0
 10 11  2  0
 10 12  1  0
 12 13  1  0
 13 14  1  6
 14 15  1  0
 15 16  1  0
 16 17  1  0
 17 18  1  0
 18 19  1  0
 19 20  1  0
 20 21  1  0
 13 22  1  0
 22 23  2  0
 22 24  1  0
 24 25  1  0
 25 26  1  6
 26 27  1  0
 28 27  1  1
 28 29  1  0
 29 30  1  0
 30 31  2  0
 31 32  1  0
 32 33  2  0
 33 34  1  0
 34 35  2  0
 28 36  1  0
 36 37  1  0
 37 38  2  0
 37 39  1  0
 39 40  1  0
 40 41  1  0
 41 42  2  0
 42 43  1  0
 43 44  2  0
 44 45  1  0
 25 46  1  0
 46 47  1  0
 47 48  2  0
 48 49  1  0
 49 50  2  0
 50 51  1  0
 51 52  2  0
  6 53  2  0
 53 54  1  0
 54  4  1  0
 21 16  1  0
 35 30  1  0
 45 41  1  0
 52 47  1  0
M  END
$$$$
418845
     RDKit          2D

 33 34  0  0  0  0  0  0  0  0999 V2000
    3.7500   -1.2990    0.0000 C   0  0  0  0  0  0  0  0  0  0  0  0
    3.0000    0.0000    0.0000 C   0  0  0  0  0  0  0  0  0  0  0  0
    3.7500    1.2990    0.0000 C   0  0  0  0  0  0  0  0  0  0  0  0
    1.5000    0.0000    0.0000 C   0  0  0  0  0  0  0  0  0  0  0  0
    0.7500   -1.2990    0.0000 N   0  0  0  0  0  0  0  0  0  0  0  0
   -0.7500   -1.2990    0.0000 C   0  0  0  0  0  0  0  0  0  0  0  0
   -1.5000    0.0000    0.0000 N   0  0  0  0  0  0  0  0  0  0  0  0
   -0.7500    1.2990    0.0000 C   0  0  0  0  0  0  0  0  0  0  0  0
   -1.5000    2.5981    0.0000 C   0  0  0  0  0  0  0  0  0  0  0  0
   -0.7500    3.8971    0.0000 C   0  0  0  0  0  0  0  0  0  0  0  0
   -1.5000    5.1962    0.0000 C   0  0  0  0  0  0  0  0  0  0  0  0
   -3.0000    5.1962    0.0000 C   0  0  0  0  0  0  0  0  0  0  0  0
   -3.7500    6.4952    0.0000 F   0  0  0  0  0  0  0  0  0  0  0  0
   -3.7500    3.8971    0.0000 C   0  0  0  0  0  0  0  0  0  0  0  0
   -3.0000    2.5981    0.0000 C   0  0  0  0  0  0  0  0  0  0  0  0
    0.7500    1.2990    0.0000 C   0  0  0  0  0  0  0  0  0  0  0  0
    1.5000    2.5981    0.0000 C   0  0  0  0  0  0  0  0  0  0  0  0
    3.0000    2.5981    0.0000 C   0  0  0  0  0  0  0  0  0  0  0  0
    3.7500    3.8971    0.0000 C   0  0  0  0  0  0  0  0  0  0  0  0
    3.0000    5.1962    0.0000 O   0  0  0  0  0  0  0  0  0  0  0  0
    5.2500    3.8971    0.0000 C   0  0  0  0  0  0  0  0  0  0  0  0
    6.0000    5.1962    0.0000 C   0  0  0  0  0  0  0  0  0  0  0  0
    5.2500    6.4952    0.0000 O   0  0  0  0  0  0  0  0  0  0  0  0
    7.5000    5.1962    0.0000 C   0  0  0  0  0  0  0  0  0  0  0  0
    8.2500    6.4952    0.0000 C   0  0  0  0  0  0  0  0  0  0  0  0
    7.5000    7.7942    0.0000 O   0  0  0  0  0  0  0  0  0  0  0  0
    9.7500    6.4952    0.0000 O   0  0  0  0  0  0  0  0  0  0  0  0
   -1.5000   -2.5981    0.0000 N   0  0  0  0  0  0  0  0  0  0  0  0
   -3.0000   -2.5981    0.0000 C   0  0  0  0  0  0  0  0  0  0  0  0
   -0.7500   -3.8971    0.0000 S   0  0  0  0  0  0  0  0  0  0  0  0
    0.5490   -3.1471    0.0000 O   0  0  0  0  0  0  0  0  0  0  0  0
   -2.0490   -4.6471    0.0000 O   0  0  0  0  0  0  0  0  0  0  0  0
   -0.0000   -5.1962    0.0000 C   0  0  0  0  0  0  0  0  0  0  0  0
  1  2  1  0
  2  3  1  0
  2  4  1  0
  4  5  2  0
  5  6  1  0
  6  7  2  0
  7  8  1  0
  8  9  1  0
  9 10  2  0
 10 11  1  0
 11 12  2  0
 12 13  1  0
 12 14  1  0
 14 15  2  0
  8 16  2  0
 16 17  1  0
 17 18  2  0
 18 19  1  0
 19 20  1  1
 19 21  1  0
 21 22  1  0
 22 23  1  1
 22 24  1  0
 24 25  1  0
 25 26  2  0
 25 27  1  0
  6 28  1  0
 28 29  1  0
 28 30  1  0
 30 31  2  0
 30 32  2  0
 30 33  1  0
 16  4  1  0
 15  9  1  0
M  END
$$$$
675138
     RDKit          2D

 37 41  0  0  0  0  0  0  0  0999 V2000
   -1.9807    6.2338    0.0000 C   0  0  0  0  0  0  0  0  0  0  0  0
   -2.1895    4.7485    0.0000 C   0  0  0  0  0  0  0  0  0  0  0  0
   -0.8192    4.1383    0.0000 C   0  0  0  0  0  0  0  0  0  0  0  0
   -3.4031    3.8668    0.0000 C   0  0  0  0  0  0  0  0  0  0  0  0
   -4.8297    4.3303    0.0000 N   0  0  0  0  0  0  0  0  0  0  0  0
   -5.7113    3.1168    0.0000 N   0  0  0  0  0  0  0  0  0  0  0  0
   -4.8297    1.9033    0.0000 C   0  0  0  0  0  0  0  0  0  0  0  0
   -5.2932    0.4767    0.0000 C   0  0  0  0  0  0  0  0  0  0  0  0
   -3.4031    2.3668    0.0000 N   0  0  0  0  0  0  0  0  0  0  0  0
   -2.1895    1.4851    0.0000 C   0  0  0  0  0  0  0  0  0  0  0  0
   -0.8192    2.0952    0.0000 C   0  0  0  0  0  0  0  0  0  0  0  0
    0.3943    1.2135    0.0000 C   0  0  0  0  0  0  0  0  0  0  0  0
    1.2760    0.0000    0.0000 C   0  0  0  0  0  0  0  0  0  0  0  0
    0.3943   -1.2135    0.0000 C   0  0  0  0  0  0  0  0  0  0  0  0
   -1.0323   -0.7500    0.0000 C   0  0  0  0  0  0  0  0  0  0  0  0
   -2.3463   -0.0067    0.0000 C   0  0  0  0  0  0  0  0  0  0  0  0
   -1.0323    0.7500    0.0000 N   0  0  0  0  0  0  0  0  0  0  0  0
   -2.2458    1.6317    0.0000 C   0  0  0  0  0  0  0  0  0  0  0  0
   -2.0890    3.1235    0.0000 C   0  0  0  0  0  0  0  0  0  0  0  0
   -3.3025    4.0051    0.0000 C   0  0  0  0  0  0  0  0  0  0  0  0
   -4.6729    3.3950    0.0000 N   0  0  0  0  0  0  0  0  0  0  0  0
   -5.8864    4.2767    0.0000 C   0  0  0  0  0  0  0  0  0  0  0  0
   -5.7296    5.7685    0.0000 O   0  0  0  0  0  0  0  0  0  0  0  0
   -7.2567    3.6666    0.0000 C   0  0  0  0  0  0  0  0  0  0  0  0
   -8.4702    4.5483    0.0000 C   0  0  0  0  0  0  0  0  0  0  0  0
   -9.8406    3.9382    0.0000 C   0  0  0  0  0  0  0  0  0  0  0  0
   -9.9973    2.4464    0.0000 C   0  0  0  0  0  0  0  0  0  0  0  0
  -10.6549    1.0982    0.0000 F   0  0  0  0  0  0  0  0  0  0  0  0
  -11.4392    2.8599    0.0000 F   0  0  0  0  0  0  0  0  0  0  0  0
   -8.7838    1.5647    0.0000 C   0  0  0  0  0  0  0  0  0  0  0  0
   -7.4135    2.1748    0.0000 C   0  0  0  0  0  0  0  0  0  0  0  0
   -3.1458    5.4969    0.0000 C   0  0  0  0  0  0  0  0  0  0  0  0
   -1.7754    6.1070    0.0000 C   0  0  0  0  0  0  0  0  0  0  0  0
   -1.6186    7.5988    0.0000 C   0  0  0  0  0  0  0  0  0  0  0  0
   -2.8322    8.4805    0.0000 C   0  0  0  0  0  0  0  0  0  0  0  0
   -4.2025    7.8704    0.0000 C   0  0  0  0  0  0  0  0  0  0  0  0
   -4.3593    6.3786    0.0000 C   0  0  0  0  0  0  0  0  0  0  0  0
  1  2  1  0
  2  3  1  0
  2  4  1  0
  4  5  2  0
  5  6  1  0
  6  7  2  0
  7  8  1  0
  7  9  1  0
 10  9  1  6
 10 11  1  0
 12 11  1  1
 12 13  1  0
 13 14  1  0
 15 14  1  1
 15 16  1  0
 15 17  1  0
 17 18  1  0
 18 19  1  0
 20 19  1  6
 20 21  1  0
 21 22  1  0
 22 23  2  0
 22 24  1  0
 24 25  1  0
 25 26  1  0
 26 27  1  0
 27 28  1  0
 27 29  1  0
 27 30  1  0
 30 31  1  0
 20 32  1  0
 32 33  2  0
 33 34  1  0
 34 35  2  0
 35 36  1  0
 36 37  2  0
  9  4  1  0
 16 10  1  0
 17 12  1  0
 31 24  1  0
 37 32  1  0
M  END
$$$$
358192
     RDKit          2D

 19 20  0  0  0  0  0  0  0  0999 V2000
    4.0981    1.9019    0.0000 C   0  0  0  0  0  0  0  0  0  0  0  0
    4.0981    0.4019    0.0000 C   0  0  0  0  0  0  0  0  0  0  0  0
    5.3971   -0.3481    0.0000 C   0  0  0  0  0  0  0  0  0  0  0  0
    2.7990   -0.3481    0.0000 C   0  0  0  0  0  0  0  0  0  0  0  0
    2.7990   -1.8481    0.0000 C   0  0  0  0  0  0  0  0  0  0  0  0
    4.0981   -2.5981    0.0000 N   0  0  0  0  0  0  0  0  0  0  0  0
    5.3971   -1.8481    0.0000 C   0  0  0  0  0  0  0  0  0  0  0  0
    4.0981   -4.0981    0.0000 C   0  0  0  0  0  0  0  0  0  0  0  0
    1.5000   -2.5981    0.0000 C   0  0  0  0  0  0  0  0  0  0  0  0
    0.2010   -3.3481    0.0000 C   0  0  0  0  0  0  0  0  0  0  0  0
    0.9510   -4.6471    0.0000 C   0  0  0  0  0  0  0  0  0  0  0  0
    2.2500   -3.8971    0.0000 C   0  0  0  0  0  0  0  0  0  0  0  0
    0.7500   -1.2990    0.0000 C   0  0  0  0  0  0  0  0  0  0  0  0
   -0.7500   -1.2990    0.0000 C   0  0  0  0  0  0  0  0  0  0  0  0
   -1.5000   -0.0000    0.0000 C   0  0  0  0  0  0  0  0  0  0  0  0
   -0.7500    1.2990    0.0000 C   0  0  0  0  0  0  0  0  0  0  0  0
   -1.5000    2.5981    0.0000 Cl  0  0  0  0  0  0  0  0  0  0  0  0
    0.7500    1.2990    0.0000 C   0  0  0  0  0  0  0  0  0  0  0  0
    1.5000   -0.0000    0.0000 C   0  0  0  0  0  0  0  0  0  0  0  0
  1  2  1  0
  2  3  1  0
  2  4  1  0
  4  5  1  0
  5  6  1  0
  6  7  1  0
  6  8  1  0
  5  9  1  0
  9 10  1  0
 10 11  1  0
 11 12  1  0
  9 13  1  0
 13 14  2  0
 14 15  1  0
 15 16  2  0
 16 17  1  0
 16 18  1  0
 18 19  2  0
 12  9  1  0
 19 13  1  0
M  END
$$$$
2524
     RDKit          2D

 16 16  0  0  0  0  0  0  0  0999 V2000
    5.2077    1.4153    0.0000 C   0  0  0  0  0  0  0  0  0  0  0  0
    4.0586    0.4512    0.0000 C   0  0  0  0  0  0  0  0  0  0  0  0
    4.3191   -1.0261    0.0000 C   0  0  0  0  0  0  0  0  0  0  0  0
    2.6491    0.9642    0.0000 C   0  0  0  0  0  0  0  0  0  0  0  0
    1.5000    0.0000    0.0000 C   0  0  0  0  0  0  0  0  0  0  0  0
    2.6491   -0.9642    0.0000 C   0  0  0  0  0  0  0  0  0  0  0  0
    2.3886   -2.4414    0.0000 C   0  0  0  0  0  0  0  0  0  0  0  0
    3.5377   -3.4056    0.0000 C   0  0  0  0  0  0  0  0  0  0  0  0
    0.7500   -1.2990    0.0000 C   0  0  0  0  0  0  0  0  0  0  0  0
    1.5000   -2.5981    0.0000 O   0  0  0  0  0  0  0  0  0  0  0  0
   -0.7500   -1.2990    0.0000 N   0  0  0  0  0  0  0  0  0  0  0  0
   -1.5000    0.0000    0.0000 C   0  0  0  0  0  0  0  0  0  0  0  0
   -3.0000    0.0000    0.0000 O   0  0  0  0  0  0  0  0  0  0  0  0
   -0.7500    1.2990    0.0000 N   0  0  0  0  0  0  0  0  0  0  0  0
    0.7500    1.2990    0.0000 C   0  0  0  0  0  0  0  0  0  0  0  0
    1.5000    2.5981    0.0000 O   0  0  0  0  0  0  0  0  0  0  0  0
  1  2  1  0
  2  3  1  0
  2  4  1  0
  4  5  1  0
  5  6  1  0
  6  7  1  0
  7  8  2  0
  5  9  1  0
  9 10  2  0
  9 11  1  0
 11 12  1  0
 12 13  2  0
 12 14  1  0
 14 15  1  0
 15 16  2  0
 15  5  1  0
M  END
$$$$
11674
     RDKit          2D

 15 15  0  0  0  0  0  0  0  0999 V2000
    5.2500   -1.2990    0.0000 C   0  0  0  0  0  0  0  0  0  0  0  0
    3.7500   -1.2990    0.0000 C   0  0  0  0  0  0  0  0  0  0  0  0
    3.0000   -2.5981    0.0000 C   0  0  0  0  0  0  0  0  0  0  0  0
    3.0000    0.0000    0.0000 C   0  0  0  0  0  0  0  0  0  0  0  0
    1.5000    0.0000    0.0000 C   0  0  0  0  0  0  0  0  0  0  0  0
    0.7500   -1.2990    0.0000 C   0  0  0  0  0  0  0  0  0  0  0  0
   -0.7500   -1.2990    0.0000 C   0  0  0  0  0  0  0  0  0  0  0  0
   -1.5000    0.0000    0.0000 C   0  0  0  0  0  0  0  0  0  0  0  0
   -0.7500    1.2990    0.0000 C   0  0  0  0  0  0  0  0  0  0  0  0
    0.7500    1.2990    0.0000 C   0  0  0  0  0  0  0  0  0  0  0  0
   -3.0000    0.0000    0.0000 C   0  0  0  0  0  0  0  0  0  0  0  0
   -3.7500    1.2990    0.0000 C   0  0  0  0  0  0  0  0  0  0  0  0
   -3.7500   -1.2990    0.0000 C   0  0  0  0  0  0  0  0  0  0  0  0
   -3.0000   -2.5981    0.0000 O   0  0  0  0  0  0  0  0  0  0  0  0
   -5.2500   -1.2990    0.0000 O   0  0  0  0  0  0  0  0  0  0  0  0
  1  2  1  0
  2  3  1  0
  2  4  1  0
  4  5  1  0
  5  6  2  0
  6  7  1  0
  7  8  2  0
  8  9  1  0
  9 10  2  0
  8 11  1  0
 11 12  1  0
 11 13  1  0
 13 14  2  0
 13 15  1  0
 10  5  1  0
M  END
$$$$
125294
     RDKit          2D

 28 30  0  0  0  0  0  0  0  0999 V2000
   -5.3758    7.1009    0.0000 C   0  0  0  0  0  0  0  0  0  0  0  0
   -5.6876    5.6337    0.0000 C   0  0  0  0  0  0  0  0  0  0  0  0
   -7.1142    5.1701    0.0000 C   0  0  0  0  0  0  0  0  0  0  0  0
   -4.5729    4.6300    0.0000 C   0  0  0  0  0  0  0  0  0  0  0  0
   -4.8848    3.1627    0.0000 C   0  0  0  0  0  0  0  0  0  0  0  0
   -3.7701    2.1590    0.0000 C   0  0  0  0  0  0  0  0  0  0  0  0
   -4.0819    0.6918    0.0000 C   0  0  0  0  0  0  0  0  0  0  0  0
   -5.5085    0.2283    0.0000 C   0  0  0  0  0  0  0  0  0  0  0  0
   -2.9672   -0.3119    0.0000 C   0  0  0  0  0  0  0  0  0  0  0  0
   -3.1240   -1.8037    0.0000 C   0  0  0  0  0  0  0  0  0  0  0  0
   -1.7537   -2.4138    0.0000 C   0  0  0  0  0  0  0  0  0  0  0  0
   -0.7500   -1.2990    0.0000 C   0  0  0  0  0  0  0  0  0  0  0  0
    0.7500   -1.2990    0.0000 C   0  0  0  0  0  0  0  0  0  0  0  0
    1.5000   -2.5981    0.0000 C   0  0  0  0  0  0  0  0  0  0  0  0
    3.0000   -2.5981    0.0000 C   0  0  0  0  0  0  0  0  0  0  0  0
    3.7500   -3.8971    0.0000 C   0  0  0  0  0  0  0  0  0  0  0  0
    5.2500   -3.8971    0.0000 C   0  0  0  0  0  0  0  0  0  0  0  0
    6.0000   -5.1962    0.0000 C   0  0  0  0  0  0  0  0  0  0  0  0
    7.5000   -5.1962    0.0000 O   0  0  0  0  0  0  0  0  0  0  0  0
    5.2500   -6.4952    0.0000 C   0  0  0  0  0  0  0  0  0  0  0  0
    3.7500   -6.4952    0.0000 C   0  0  0  0  0  0  0  0  0  0  0  0
    3.0000   -5.1962    0.0000 C   0  0  0  0  0  0  0  0  0  0  0  0
    1.5000   -5.1962    0.0000 C   0  0  0  0  0  0  0  0  0  0  0  0
    1.5000    0.0000    0.0000 C   0  0  0  0  0  0  0  0  0  0  0  0
    0.7500    1.2990    0.0000 C   0  0  0  0  0  0  0  0  0  0  0  0
   -0.7500    1.2990    0.0000 C   0  0  0  0  0  0  0  0  0  0  0  0
   -1.5000    0.0000    0.0000 C   0  0  0  0  0  0  0  0  0  0  0  0
   -2.3817    1.2135    0.0000 C   0  0  0  0  0  0  0  0  0  0  0  0
  1  2  1  0
  2  3  1  0
  2  4  1  0
  4  5  1  0
  5  6  1  0
  6  7  1  0
  7  8  1  6
  7  9  1  0
  9 10  1  6
 10 11  1  0
 12 11  1  6
 12 13  1  0
 13 14  2  0
 14 15  1  0
 15 16  2  0
 16 17  1  0
 17 18  1  0
 18 19  1  1
 18 20  1  0
 20 21  1  0
 21 22  1  0
 22 23  2  0
 13 24  1  0
 24 25  1  0
 25 26  1  0
 26 27  1  0
 27 28  1  6
 27  9  1  0
 27 12  1  0
 22 16  1  0
M  END
$$$$
17347
     RDKit          2D

 35 37  0  0  0  0  0  0  0  0999 V2000
    0.7500  -11.6913    0.0000 C   0  0  0  0  0  0  0  0  0  0  0  0
    1.5000  -10.3923    0.0000 C   0  0  0  0  0  0  0  0  0  0  0  0
    3.0000  -10.3923    0.0000 C   0  0  0  0  0  0  0  0  0  0  0  0
    0.7500   -9.0933    0.0000 C   0  0  0  0  0  0  0  0  0  0  0  0
    1.5000   -7.7942    0.0000 N   0  0  0  0  0  0  0  0  0  0  0  0
    0.7500   -6.4952    0.0000 C   0  0  0  0  0  0  0  0  0  0  0  0
    1.5000   -5.1962    0.0000 C   0  0  0  0  0  0  0  0  0  0  0  0
    3.0000   -5.1962    0.0000 O   0  0  0  0  0  0  0  0  0  0  0  0
    0.7500   -3.8971    0.0000 C   0  0  0  0  0  0  0  0  0  0  0  0
    1.5000   -2.5981    0.0000 C   0  0  0  0  0  0  0  0  0  0  0  0
    0.7500   -1.2990    0.0000 C   0  0  0  0  0  0  0  0  0  0  0  0
    1.5000    0.0000    0.0000 C   0  0  0  0  0  0  0  0  0  0  0  0
    0.7500    1.2990    0.0000 C   0  0  0  0  0  0  0  0  0  0  0  0
   -0.7500    1.2990    0.0000 C   0  0  0  0  0  0  0  0  0  0  0  0
   -1.5000    0.0000    0.0000 C   0  0  0  0  0  0  0  0  0  0  0  0
   -0.7500   -1.2990    0.0000 C   0  0  0  0  0  0  0  0  0  0  0  0
   -0.7500   -3.8971    0.0000 N   0  0  0  0  0  0  0  0  0  0  0  0
   -1.5000   -5.1962    0.0000 C   0  0  0  0  0  0  0  0  0  0  0  0
   -0.7500   -6.4952    0.0000 O   0  0  0  0  0  0  0  0  0  0  0  0
   -3.0000   -5.1962    0.0000 O   0  0  0  0  0  0  0  0  0  0  0  0
   -3.7500   -6.4952    0.0000 C   0  0  0  0  0  0  0  0  0  0  0  0
   -3.1399   -7.8655    0.0000 C   0  0  0  0  0  0  0  0  0  0  0  0
   -4.2546   -8.8692    0.0000 C   0  0  0  0  0  0  0  0  0  0  0  0
   -5.5537   -8.1192    0.0000 O   0  0  0  0  0  0  0  0  0  0  0  0
   -5.2418   -6.6520    0.0000 C   0  0  0  0  0  0  0  0  0  0  0  0
    3.0000   -7.7942    0.0000 S   0  0  0  0  0  0  0  0  0  0  0  0
    3.0000   -6.2942    0.0000 O   0  0  0  0  0  0  0  0  0  0  0  0
    3.0000   -9.2942    0.0000 O   0  0  0  0  0  0  0  0  0  0  0  0
    4.5000   -7.7942    0.0000 C   0  0  0  0  0  0  0  0  0  0  0  0
    5.2500   -9.0933    0.0000 C   0  0  0  0  0  0  0  0  0  0  0  0
    6.7500   -9.0933    0.0000 C   0  0  0  0  0  0  0  0  0  0  0  0
    7.5000   -7.7942    0.0000 C   0  0  0  0  0  0  0  0  0  0  0  0
    9.0000   -7.7942    0.0000 N   0  0  0  0  0  0  0  0  0  0  0  0
    6.7500   -6.4952    0.0000 C   0  0  0  0  0  0  0  0  0  0  0  0
    5.2500   -6.4952    0.0000 C   0  0  0  0  0  0  0  0  0  0  0  0
  1  2  1  0
  2  3  1  0
  2  4  1  0
  4  5  1  0
  5  6  1  0
  6  7  1  0
  7  8  1  6
  7  9  1  0
  9 10  1  1
 10 11  1  0
 11 12  2  0
 12 13  1  0
 13 14  2  0
 14 15  1  0
 15 16  2  0
  9 17  1  0
 17 18  1  0
 18 19  2  0
 18 20  1  0
 21 20  1  1
 21 22  1  0
 22 23  1  0
 23 24  1  0
 24 25  1  0
  5 26  1  0
 26 27  2  0
 26 28  2  0
 26 29  1  0
 29 30  2  0
 30 31  1  0
 31 32  2  0
 32 33  1  0
 32 34  1  0
 34 35  2  0
 16 11  1  0
 25 21  1  0
 35 29  1  0
M  END
$$$$
267163
     RDKit          2D

 38 41  0  0  0  0  0  0  0  0999 V2000
   -6.4140   12.3558    0.0000 C   0  0  0  0  0  0  0  0  0  0  0  0
   -5.6640   11.0568    0.0000 C   0  0  0  0  0  0  0  0  0  0  0  0
   -4.1640   11.0568    0.0000 C   0  0  0  0  0  0  0  0  0  0  0  0
   -6.4140    9.7578    0.0000 C   0  0  0  0  0  0  0  0  0  0  0  0
   -5.6640    8.4587    0.0000 N   0  0  0  0  0  0  0  0  0  0  0  0
   -6.4140    7.1597    0.0000 C   0  0  0  0  0  0  0  0  0  0  0  0
   -5.6640    5.8606    0.0000 C   0  0  0  0  0  0  0  0  0  0  0  0
   -4.1640    5.8606    0.0000 O   0  0  0  0  0  0  0  0  0  0  0  0
   -6.4140    4.5616    0.0000 C   0  0  0  0  0  0  0  0  0  0  0  0
   -7.9140    4.5616    0.0000 C   0  0  0  0  0  0  0  0  0  0  0  0
   -8.6640    5.8606    0.0000 C   0  0  0  0  0  0  0  0  0  0  0  0
   -7.9140    7.1597    0.0000 C   0  0  0  0  0  0  0  0  0  0  0  0
   -8.6640    8.4587    0.0000 C   0  0  0  0  0  0  0  0  0  0  0  0
  -10.1640    8.4587    0.0000 C   0  0  0  0  0  0  0  0  0  0  0  0
  -10.9140    7.1597    0.0000 C   0  0  0  0  0  0  0  0  0  0  0  0
  -10.1640    5.8606    0.0000 C   0  0  0  0  0  0  0  0  0  0  0  0
   -5.6640    3.2626    0.0000 N   0  0  0  0  0  0  0  0  0  0  0  0
   -4.1640    3.2626    0.0000 C   0  0  0  0  0  0  0  0  0  0  0  0
   -3.4140    4.5616    0.0000 O   0  0  0  0  0  0  0  0  0  0  0  0
   -3.4140    1.9635    0.0000 O   0  0  0  0  0  0  0  0  0  0  0  0
   -1.9140    1.9635    0.0000 C   0  0  0  0  0  0  0  0  0  0  0  0
   -1.0323    3.1771    0.0000 C   0  0  0  0  0  0  0  0  0  0  0  0
    0.3943    2.7135    0.0000 O   0  0  0  0  0  0  0  0  0  0  0  0
    0.3943    1.2135    0.0000 C   0  0  0  0  0  0  0  0  0  0  0  0
    1.2760    0.0000    0.0000 O   0  0  0  0  0  0  0  0  0  0  0  0
    0.3943   -1.2135    0.0000 C   0  0  0  0  0  0  0  0  0  0  0  0
   -1.0323   -0.7500    0.0000 C   0  0  0  0  0  0  0  0  0  0  0  0
   -1.0323    0.7500    0.0000 C   0  0  0  0  0  0  0  0  0  0  0  0
   -4.1640    8.4587    0.0000 S   0  0  0  0  0  0  0  0  0  0  0  0
   -4.1640    6.9587    0.0000 O   0  0  0  0  0  0  0  0  0  0  0  0
   -4.1640    9.9587    0.0000 O   0  0  0  0  0  0  0  0  0  0  0  0
   -2.6640    8.4587    0.0000 C   0  0  0  0  0  0  0  0  0  0  0  0
   -1.9140    7.1597    0.0000 C   0  0  0  0  0  0  0  0  0  0  0  0
   -0.4140    7.1597    0.0000 C   0  0  0  0  0  0  0  0  0  0  0  0
    0.3360    8.4587    0.0000 C   0  0  0  0  0  0  0  0  0  0  0  0
    1.8360    8.4587    0.0000 N   0  0  0  0  0  0  0  0  0  0  0  0
   -0.4140    9.7578    0.0000 C   0  0  0  0  0  0  0  0  0  0  0  0
   -1.9140    9.7578    0.0000 C   0  0  0  0  0  0  0  0  0  0  0  0
  1  2  1  0
  2  3  1  0
  2  4  1  0
  4  5  1  0
  5  6  1  0
  6  7  1  0
  7  8  1  1
  7  9  1  0
  9 10  1  1
 10 11  1  0
 11 12  2  0
 12 13  1  0
 13 14  2  0
 14 15  1  0
 15 16  2  0
  9 17  1  0
 17 18  1  0
 18 19  2  0
 18 20  1  0
 21 20  1  1
 21 22  1  0
 22 23  1  0
 24 23  1  1
 24 25  1  0
 25 26  1  0
 26 27  1  0
 28 27  1  1
  5 29  1  0
 29 30  2  0
 29 31  2  0
 29 32  1  0
 32 33  2  0
 33 34  1  0
 34 35  2  0
 35 36  1  0
 35 37  1  0
 37 38  2  0
 16 11  1  0
 28 21  1  0
 28 24  1  0
 38 32  1  0
M  END
$$$$
499624
     RDKit          2D

 39 41  0  0  0  0  0  0  0  0999 V2000
    5.2500   -9.0933    0.0000 C   0  0  0  0  0  0  0  0  0  0  0  0
    3.7500   -9.0933    0.0000 C   0  0  0  0  0  0  0  0  0  0  0  0
    3.0000  -10.3923    0.0000 C   0  0  0  0  0  0  0  0  0  0  0  0
    3.0000   -7.7942    0.0000 C   0  0  0  0  0  0  0  0  0  0  0  0
    1.5000   -7.7942    0.0000 N   0  0  0  0  0  0  0  0  0  0  0  0
    0.7500   -6.4952    0.0000 C   0  0  0  0  0  0  0  0  0  0  0  0
    1.5000   -5.1962    0.0000 C   0  0  0  0  0  0  0  0  0  0  0  0
    3.0000   -5.1962    0.0000 O   0  0  0  0  0  0  0  0  0  0  0  0
    3.7500   -3.8971    0.0000 P   0  0  0  0  0  0  0  0  0  0  0  0
    5.0490   -4.6471    0.0000 O   0  0  0  0  0  0  0  0  0  0  0  0
    2.4510   -3.1471    0.0000 O   0  0  0  0  0  0  0  0  0  0  0  0
    4.5000   -2.5981    0.0000 O   0  0  0  0  0  0  0  0  0  0  0  0
    0.7500   -3.8971    0.0000 C   0  0  0  0  0  0  0  0  0  0  0  0
    1.5000   -2.5981    0.0000 C   0  0  0  0  0  0  0  0  0  0  0  0
    0.7500   -1.2990    0.0000 C   0  0  0  0  0  0  0  0  0  0  0  0
    1.5000    0.0000    0.0000 C   0  0  0  0  0  0  0  0  0  0  0  0
    0.7500    1.2990    0.0000 C   0  0  0  0  0  0  0  0  0  0  0  0
   -0.7500    1.2990    0.0000 C   0  0  0  0  0  0  0  0  0  0  0  0
   -1.5000    0.0000    0.0000 C   0  0  0  0  0  0  0  0  0  0  0  0
   -0.7500   -1.2990    0.0000 C   0  0  0  0  0  0  0  0  0  0  0  0
   -0.7500   -3.8971    0.0000 N   0  0  0  0  0  0  0  0  0  0  0  0
   -1.5000   -5.1962    0.0000 C   0  0  0  0  0  0  0  0  0  0  0  0
   -0.7500   -6.4952    0.0000 O   0  0  0  0  0  0  0  0  0  0  0  0
   -3.0000   -5.1962    0.0000 O   0  0  0  0  0  0  0  0  0  0  0  0
   -3.7500   -6.4952    0.0000 C   0  0  0  0  0  0  0  0  0  0  0  0
   -3.1399   -7.8655    0.0000 C   0  0  0  0  0  0  0  0  0  0  0  0
   -4.2546   -8.8692    0.0000 C   0  0  0  0  0  0  0  0  0  0  0  0
   -5.5537   -8.1192    0.0000 O   0  0  0  0  0  0  0  0  0  0  0  0
   -5.2418   -6.6520    0.0000 C   0  0  0  0  0  0  0  0  0  0  0  0
    0.7500   -9.0933    0.0000 S   0  0  0  0  0  0  0  0  0  0  0  0
   -0.5490   -8.3433    0.0000 O   0  0  0  0  0  0  0  0  0  0  0  0
    2.0490   -9.8433    0.0000 O   0  0  0  0  0  0  0  0  0  0  0  0
   -0.0000  -10.3923    0.0000 C   0  0  0  0  0  0  0  0  0  0  0  0
    0.7500  -11.6913    0.0000 C   0  0  0  0  0  0  0  0  0  0  0  0
   -0.0000  -12.9904    0.0000 C   0  0  0  0  0  0  0  0  0  0  0  0
   -1.5000  -12.9904    0.0000 C   0  0  0  0  0  0  0  0  0  0  0  0
   -2.2500  -14.2894    0.0000 N   0  0  0  0  0  0  0  0  0  0  0  0
   -2.2500  -11.6913    0.0000 C   0  0  0  0  0  0  0  0  0  0  0  0
   -1.5000  -10.3923    0.0000 C   0  0  0  0  0  0  0  0  0  0  0  0
  1  2  1  0
  2  3  1  0
  2  4  1  0
  4  5  1  0
  5  6  1  0
  7  6  1  6
  7  8  1  0
  8  9  1  0
  9 10  2  0
  9 11  1  0
  9 12  1  0
  7 13  1  0
 13 14  1  1
 14 15  1  0
 15 16  2  0
 16 17  1  0
 17 18  2  0
 18 19  1  0
 19 20  2  0
 13 21  1  0
 21 22  1  0
 22 23  2  0
 22 24  1  0
 25 24  1  1
 25 26  1  0
 26 27  1  0
 27 28  1  0
 28 29  1  0
  5 30  1  0
 30 31  2  0
 30 32  2  0
 30 33  1  0
 33 34  2  0
 34 35  1  0
 35 36  2  0
 36 37  1  0
 36 38  1  0
 38 39  2  0
 20 15  1  0
 29 25  1  0
 39 33  1  0
M  END
$$$$
647206
     RDKit          2D

 22 23  0  0  0  0  0  0  0  0999 V2000
    6.0000   -2.5981    0.0000 C   0  0  0  0  0  0  0  0  0  0  0  0
    5.2500   -1.2990    0.0000 C   0  0  0  0  0  0  0  0  0  0  0  0
    6.0000    0.0000    0.0000 C   0  0  0  0  0  0  0  0  0  0  0  0
    3.7500   -1.2990    0.0000 C   0  0  0  0  0  0  0  0  0  0  0  0
    3.0000    0.0000    0.0000 O   0  0  0  0  0  0  0  0  0  0  0  0
    1.5000    0.0000    0.0000 C   0  0  0  0  0  0  0  0  0  0  0  0
    0.7500   -1.2990    0.0000 C   0  0  0  0  0  0  0  0  0  0  0  0
   -0.7500   -1.2990    0.0000 C   0  0  0  0  0  0  0  0  0  0  0  0
   -1.5000    0.0000    0.0000 C   0  0  0  0  0  0  0  0  0  0  0  0
   -0.7500    1.2990    0.0000 C   0  0  0  0  0  0  0  0  0  0  0  0
    0.7500    1.2990    0.0000 C   0  0  0  0  0  0  0  0  0  0  0  0
    1.5000    2.5981    0.0000 C   0  0  0  0  0  0  0  0  0  0  0  0
    2.2500    3.8971    0.0000 N   0  0  0  0  0  0  0  0  0  0  0  0
   -3.0000    0.0000    0.0000 C   0  0  0  0  0  0  0  0  0  0  0  0
   -3.8817   -1.2135    0.0000 N   0  0  0  0  0  0  0  0  0  0  0  0
   -5.3083   -0.7500    0.0000 C   0  0  0  0  0  0  0  0  0  0  0  0
   -6.5218   -1.6317    0.0000 C   0  0  0  0  0  0  0  0  0  0  0  0
   -5.3083    0.7500    0.0000 C   0  0  0  0  0  0  0  0  0  0  0  0
   -3.8817    1.2135    0.0000 S   0  0  0  0  0  0  0  0  0  0  0  0
   -6.5218    1.6317    0.0000 C   0  0  0  0  0  0  0  0  0  0  0  0
   -7.8921    1.0216    0.0000 O   0  0  0  0  0  0  0  0  0  0  0  0
   -6.3650    3.1235    0.0000 O   0  0  0  0  0  0  0  0  0  0  0  0
  1  2  1  0
  2  3  1  0
  2  4  1  0
  4  5  1  0
  5  6  1  0
  6  7  2  0
  7  8  1  0
  8  9  2  0
  9 10  1  0
 10 11  2  0
 11 12  1  0
 12 13  3  0
  9 14  1  0
 14 15  2  0
 15 16  1  0
 16 17  1  0
 16 18  2  0
 18 19  1  0
 18 20  1  0
 20 21  2  0
 20 22  1  0
 11  6  1  0
 19 14  1  0
M  END
$$$$
1383541
     RDKit          2D

 31 33  0  0  0  0  0  0  0  0999 V2000
    6.0000   -2.5981    0.0000 C   0  0  0  0  0  0  0  0  0  0  0  0
    5.2500   -1.2990    0.0000 C   0  0  0  0  0  0  0  0  0  0  0  0
    6.0000    0.0000    0.0000 C   0  0  0  0  0  0  0  0  0  0  0  0
    3.7500   -1.2990    0.0000 C   0  0  0  0  0  0  0  0  0  0  0  0
    3.0000    0.0000    0.0000 O   0  0  0  0  0  0  0  0  0  0  0  0
    1.5000    0.0000    0.0000 C   0  0  0  0  0  0  0  0  0  0  0  0
    0.7500   -1.2990    0.0000 C   0  0  0  0  0  0  0  0  0  0  0  0
   -0.7500   -1.2990    0.0000 C   0  0  0  0  0  0  0  0  0  0  0  0
   -1.5000    0.0000    0.0000 C   0  0  0  0  0  0  0  0  0  0  0  0
   -3.0000    0.0000    0.0000 C   0  0  0  0  0  0  0  0  0  0  0  0
   -3.7500    1.2990    0.0000 N   0  0  0  0  0  0  0  0  0  0  0  0
   -5.2500    1.2990    0.0000 C   0  0  0  0  0  0  0  0  0  0  0  0
   -6.0000    0.0000    0.0000 O   0  0  0  0  0  0  0  0  0  0  0  0
   -6.0000    2.5981    0.0000 N   0  0  0  0  0  0  0  0  0  0  0  0
   -7.5000    2.5981    0.0000 C   0  0  0  0  0  0  0  0  0  0  0  0
   -8.2500    3.8971    0.0000 C   0  0  0  0  0  0  0  0  0  0  0  0
   -7.5000    5.1962    0.0000 C   0  0  0  0  0  0  0  0  0  0  0  0
   -8.2500    6.4952    0.0000 C   0  0  0  0  0  0  0  0  0  0  0  0
   -9.7500    6.4952    0.0000 C   0  0  0  0  0  0  0  0  0  0  0  0
  -10.5000    7.7942    0.0000 F   0  0  0  0  0  0  0  0  0  0  0  0
  -10.5000    5.1962    0.0000 C   0  0  0  0  0  0  0  0  0  0  0  0
   -9.7500    3.8971    0.0000 C   0  0  0  0  0  0  0  0  0  0  0  0
   -5.2500    3.8971    0.0000 C   0  0  0  0  0  0  0  0  0  0  0  0
   -3.7500    3.8971    0.0000 C   0  0  0  0  0  0  0  0  0  0  0  0
   -3.0000    5.1962    0.0000 C   0  0  0  0  0  0  0  0  0  0  0  0
   -3.7500    6.4952    0.0000 N   0  0  0  0  0  0  0  0  0  0  0  0
   -3.0000    7.7942    0.0000 C   0  0  0  0  0  0  0  0  0  0  0  0
   -5.2500    6.4952    0.0000 C   0  0  0  0  0  0  0  0  0  0  0  0
   -6.0000    5.1962    0.0000 C   0  0  0  0  0  0  0  0  0  0  0  0
   -0.7500    1.2990    0.0000 C   0  0  0  0  0  0  0  0  0  0  0  0
    0.7500    1.2990    0.0000 C   0  0  0  0  0  0  0  0  0  0  0  0
  1  2  1  0
  2  3  1  0
  2  4  1  0
  4  5  1  0
  5  6  1  0
  6  7  2  0
  7  8  1  0
  8  9  2  0
  9 10  1  0
 10 11  1  0
 11 12  1  0
 12 13  2  0
 12 14  1  0
 14 15  1  0
 15 16  1  0
 16 17  2  0
 17 18  1  0
 18 19  2  0
 19 20  1  0
 19 21  1  0
 21 22  2  0
 14 23  1  0
 23 24  1  0
 24 25  1  0
 25 26  1  0
 26 27  1  0
 26 28  1  0
 28 29  1  0
  9 30  1  0
 30 31  2  0
 31  6  1  0
 22 16  1  0
 29 23  1  0
M  END
$$$$
1590761
     RDKit          2D

 72 75  0  0  0  0  0  0  0  0999 V2000
    6.0000   -2.5981    0.0000 C   0  0  0  0  0  0  0  0  0  0  0  0
    5.2500   -1.2990    0.0000 C   0  0  0  0  0  0  0  0  0  0  0  0
    6.0000    0.0000    0.0000 C   0  0  0  0  0  0  0  0  0  0  0  0
    3.7500   -1.2990    0.0000 C   0  0  0  0  0  0  0  0  0  0  0  0
    3.0000    0.0000    0.0000 O   0  0  0  0  0  0  0  0  0  0  0  0
    1.5000    0.0000    0.0000 C   0  0  0  0  0  0  0  0  0  0  0  0
    0.7500   -1.2990    0.0000 C   0  0  0  0  0  0  0  0  0  0  0  0
   -0.7500   -1.2990    0.0000 C   0  0  0  0  0  0  0  0  0  0  0  0
   -1.5000    0.0000    0.0000 C   0  0  0  0  0  0  0  0  0  0  0  0
   -3.0000    0.0000    0.0000 C   0  0  0  0  0  0  0  0  0  0  0  0
   -3.7500    1.2990    0.0000 N   0  0  0  0  0  0  0  0  0  0  0  0
   -5.2500    1.2990    0.0000 C   0  0  0  0  0  0  0  0  0  0  0  0
   -6.0000    0.0000    0.0000 O   0  0  0  0  0  0  0  0  0  0  0  0
   -6.0000    2.5981    0.0000 N   0  0  0  0  0  0  0  0  0  0  0  0
   -7.5000    2.5981    0.0000 C   0  0  0  0  0  0  0  0  0  0  0  0
   -8.2500    3.8971    0.0000 C   0  0  0  0  0  0  0  0  0  0  0  0
   -7.5000    5.1962    0.0000 C   0  0  0  0  0  0  0  0  0  0  0  0
   -8.2500    6.4952    0.0000 C   0  0  0  0  0  0  0  0  0  0  0  0
   -9.7500    6.4952    0.0000 C   0  0  0  0  0  0  0  0  0  0  0  0
  -10.5000    7.7942    0.0000 F   0  0  0  0  0  0  0  0  0  0  0  0
  -10.5000    5.1962    0.0000 C   0  0  0  0  0  0  0  0  0  0  0  0
   -9.7500    3.8971    0.0000 C   0  0  0  0  0  0  0  0  0  0  0  0
   -5.2500    3.8971    0.0000 C   0  0  0  0  0  0  0  0  0  0  0  0
   -3.7500    3.8971    0.0000 C   0  0  0  0  0  0  0  0  0  0  0  0
   -3.0000    5.1962    0.0000 C   0  0  0  0  0  0  0  0  0  0  0  0
   -3.7500    6.4952    0.0000 N   0  0  0  0  0  0  0  0  0  0  0  0
   -3.0000    7.7942    0.0000 C   0  0  0  0  0  0  0  0  0  0  0  0
   -5.2500    6.4952    0.0000 C   0  0  0  0  0  0  0  0  0  0  0  0
   -6.0000    5.1962    0.0000 C   0  0  0  0  0  0  0  0  0  0  0  0
   -0.7500    1.2990    0.0000 C   0  0  0  0  0  0  0  0  0  0  0  0
    0.7500    1.2990    0.0000 C   0  0  0  0  0  0  0  0  0  0  0  0
    6.0000    8.7942    0.0000 C   0  0  0  0  0  0  0  0  0  0  0  0
    5.2500   10.0933    0.0000 C   0  0  0  0  0  0  0  0  0  0  0  0
    6.0000   11.3923    0.0000 C   0  0  0  0  0  0  0  0  0  0  0  0
    3.7500   10.0933    0.0000 C   0  0  0  0  0  0  0  0  0  0  0  0
    3.0000   11.3923    0.0000 O   0  0  0  0  0  0  0  0  0  0  0  0
    1.5000   11.3923    0.0000 C   0  0  0  0  0  0  0  0  0  0  0  0
    0.7500   10.0933    0.0000 C   0  0  0  0  0  0  0  0  0  0  0  0
   -0.7500   10.0933    0.0000 C   0  0  0  0  0  0  0  0  0  0  0  0
   -1.5000   11.3923    0.0000 C   0  0  0  0  0  0  0  0  0  0  0  0
   -3.0000   11.3923    0.0000 C   0  0  0  0  0  0  0  0  0  0  0  0
   -3.7500   12.6913    0.0000 N   0  0  0  0  0  0  0  0  0  0  0  0
   -5.2500   12.6913    0.0000 C   0  0  0  0  0  0  0  0  0  0  0  0
   -6.0000   11.3923    0.0000 O   0  0  0  0  0  0  0  0  0  0  0  0
   -6.0000   13.9904    0.0000 N   0  0  0  0  0  0  0  0  0  0  0  0
   -7.5000   13.9904    0.0000 C   0  0  0  0  0  0  0  0  0  0  0  0
   -8.2500   15.2894    0.0000 C   0  0  0  0  0  0  0  0  0  0  0  0
   -7.5000   16.5885    0.0000 C   0  0  0  0  0  0  0  0  0  0  0  0
   -8.2500   17.8875    0.0000 C   0  0  0  0  0  0  0  0  0  0  0  0
   -9.7500   17.8875    0.0000 C   0  0  0  0  0  0  0  0  0  0  0  0
  -10.5000   19.1865    0.0000 F   0  0  0  0  0  0  0  0  0  0  0  0
  -10.5000   16.5885    0.0000 C   0  0  0  0  0  0  0  0  0  0  0  0
   -9.7500   15.2894    0.0000 C   0  0  0  0  0  0  0  0  0  0  0  0
   -5.2500   15.2894    0.0000 C   0  0  0  0  0  0  0  0  0  0  0  0
   -3.7500   15.2894    0.0000 C   0  0  0  0  0  0  0  0  0  0  0  0
   -3.0000   16.5885    0.0000 C   0  0  0  0  0  0  0  0  0  0  0  0
   -3.7500   17.8875    0.0000 N   0  0  0  0  0  0  0  0  0  0  0  0
   -3.0000   19.1865    0.0000 C   0  0  0  0  0  0  0  0  0  0  0  0
   -5.2500   17.8875    0.0000 C   0  0  0  0  0  0  0  0  0  0  0  0
   -6.0000   16.5885    0.0000 C   0  0  0  0  0  0  0  0  0  0  0  0
   -0.7500   12.6913    0.0000 C   0  0  0  0  0  0  0  0  0  0  0  0
    0.7500   12.6913    0.0000 C   0  0  0  0  0  0  0  0  0  0  0  0
    9.5981   -1.5000    0.0000 O   0  0  0  0  0  0  0  0  0  0  0  0
    9.5981    0.0000    0.0000 C   0  0  0  0  0  0  0  0  0  0  0  0
   10.8971    0.7500    0.0000 C   0  0  0  0  0  0  0  0  0  0  0  0
   10.8971    2.2500    0.0000 O   0  0  0  0  0  0  0  0  0  0  0  0
   12.1962   -0.0000    0.0000 C   0  0  0  0  0  0  0  0  0  0  0  0
   12.1962   -1.5000    0.0000 O   0  0  0  0  0  0  0  0  0  0  0  0
   13.4952    0.7500    0.0000 O   0  0  0  0  0  0  0  0  0  0  0  0
    8.2990    0.7500    0.0000 C   0  0  0  0  0  0  0  0  0  0  0  0
    8.2990    2.2500    0.0000 O   0  0  0  0  0  0  0  0  0  0  0  0
    7.0000    0.0000    0.0000 O   0  0  0  0  0  0  0  0  0  0  0  0
  1  2  1  0
  2  3  1  0
  2  4  1  0
  4  5  1  0
  5  6  1  0
  6  7  2  0
  7  8  1  0
  8  9  2  0
  9 10  1  0
 10 11  1  0
 11 12  1  0
 12 13  2  0
 12 14  1  0
 14 15  1  0
 15 16  1  0
 16 17  2  0
 17 18  1  0
 18 19  2  0
 19 20  1  0
 19 21  1  0
 21 22  2  0
 14 23  1  0
 23 24  1  0
 24 25  1  0
 25 26  1  0
 26 27  1  0
 26 28  1  0
 28 29  1  0
  9 30  1  0
 30 31  2  0
 32 33  1  0
 33 34  1  0
 33 35  1  0
 35 36  1  0
 36 37  1  0
 37 38  2  0
 38 39  1  0
 39 40  2  0
 40 41  1  0
 41 42  1  0
 42 43  1  0
 43 44  2  0
 43 45  1  0
 45 46  1  0
 46 47  1  0
 47 48  2  0
 48 49  1  0
 49 50  2  0
 50 51  1  0
 50 52  1  0
 52 53  2  0
 45 54  1  0
 54 55  1  0
 55 56  1  0
 56 57  1  0
 57 58  1  0
 57 59  1  0
 59 60  1  0
 40 61  1  0
 61 62  2  0
 63 64  1  0
 64 65  1  0
 65 66  1  0
 65 67  1  0
 67 68  2  0
 67 69  1  0
 64 70  1  0
 70 71  2  0
 70 72  1  0
 31  6  1  0
 22 16  1  0
 29 23  1  0
 62 37  1  0
 53 47  1  0
 60 54  1  0
M  END
$$$$
112651
     RDKit          2D

 27 29  0  0  0  0  0  0  0  0999 V2000
   -5.2500   -9.0933    0.0000 C   0  0  0  0  0  0  0  0  0  0  0  0
   -3.7500   -9.0933    0.0000 C   0  0  0  0  0  0  0  0  0  0  0  0
   -3.0000  -10.3923    0.0000 C   0  0  0  0  0  0  0  0  0  0  0  0
   -3.0000   -7.7942    0.0000 C   0  0  0  0  0  0  0  0  0  0  0  0
   -1.5000   -7.7942    0.0000 O   0  0  0  0  0  0  0  0  0  0  0  0
   -0.7500   -6.4952    0.0000 C   0  0  0  0  0  0  0  0  0  0  0  0
    0.7500   -6.4952    0.0000 C   0  0  0  0  0  0  0  0  0  0  0  0
    1.5000   -5.1962    0.0000 C   0  0  0  0  0  0  0  0  0  0  0  0
    0.7500   -3.8971    0.0000 N   0  0  0  0  0  0  0  0  0  0  0  0
    1.5000   -2.5981    0.0000 C   0  0  0  0  0  0  0  0  0  0  0  0
    0.7500   -1.2990    0.0000 C   0  0  0  0  0  0  0  0  0  0  0  0
    1.5000    0.0000    0.0000 C   0  0  0  0  0  0  0  0  0  0  0  0
    0.7500    1.2990    0.0000 C   0  0  0  0  0  0  0  0  0  0  0  0
   -0.7500    1.2990    0.0000 C   0  0  0  0  0  0  0  0  0  0  0  0
   -1.5000    0.0000    0.0000 C   0  0  0  0  0  0  0  0  0  0  0  0
   -0.7500   -1.2990    0.0000 C   0  0  0  0  0  0  0  0  0  0  0  0
   -0.7500   -3.8971    0.0000 C   0  0  0  0  0  0  0  0  0  0  0  0
   -1.5000   -2.5981    0.0000 C   0  0  0  0  0  0  0  0  0  0  0  0
   -3.0000   -2.5981    0.0000 C   0  0  0  0  0  0  0  0  0  0  0  0
   -3.7500   -3.8971    0.0000 C   0  0  0  0  0  0  0  0  0  0  0  0
   -3.0000   -5.1962    0.0000 C   0  0  0  0  0  0  0  0  0  0  0  0
   -1.5000   -5.1962    0.0000 C   0  0  0  0  0  0  0  0  0  0  0  0
    1.5000   -7.7942    0.0000 N   0  0  0  0  0  0  0  0  0  0  0  0
    2.9918   -7.9510    0.0000 C   0  0  0  0  0  0  0  0  0  0  0  0
    3.3037   -9.4182    0.0000 C   0  0  0  0  0  0  0  0  0  0  0  0
    2.0046  -10.1682    0.0000 C   0  0  0  0  0  0  0  0  0  0  0  0
    0.8899   -9.1645    0.0000 C   0  0  0  0  0  0  0  0  0  0  0  0
  1  2  1  0
  2  3  1  0
  2  4  1  0
  4  5  1  0
  5  6  1  0
  6  7  1  0
  7  8  1  0
  8  9  1  0
  9 10  1  0
 10 11  1  0
 11 12  2  0
 12 13  1  0
 13 14  2  0
 14 15  1  0
 15 16  2  0
  9 17  1  0
 17 18  2  0
 18 19  1  0
 19 20  2  0
 20 21  1  0
 21 22  2  0
  7 23  1  0
 23 24  1  0
 24 25  1  0
 25 26  1  0
 26 27  1  0
 16 11  1  0
 22 17  1  0
 27 23  1  0
M  END
$$$$
7065
     RDKit          2D

 43 49  0  0  0  0  0  0  0  0999 V2000
    0.1554    8.9037    0.0000 C   0  0  0  0  0  0  0  0  0  0  0  0
   -1.3119    9.2156    0.0000 C   0  0  0  0  0  0  0  0  0  0  0  0
   -1.7754   10.6422    0.0000 C   0  0  0  0  0  0  0  0  0  0  0  0
   -2.3156    8.1009    0.0000 C   0  0  0  0  0  0  0  0  0  0  0  0
   -3.7828    8.4128    0.0000 C   0  0  0  0  0  0  0  0  0  0  0  0
   -4.7865    7.2980    0.0000 N   0  0  0  0  0  0  0  0  0  0  0  0
   -4.6297    5.8063    0.0000 C   0  0  0  0  0  0  0  0  0  0  0  0
   -3.3306    5.0563    0.0000 O   0  0  0  0  0  0  0  0  0  0  0  0
   -6.0000    5.1962    0.0000 C   0  0  0  0  0  0  0  0  0  0  0  0
   -5.2500    3.8971    0.0000 N   0  0  0  0  0  0  0  0  0  0  0  0
   -6.0000    2.5981    0.0000 C   0  0  0  0  0  0  0  0  0  0  0  0
   -6.9768    2.4781    0.0000 O   0  0  0  0  0  0  0  0  0  0  0  0
   -5.2500    1.2990    0.0000 C   0  0  0  0  0  0  0  0  0  0  0  0
   -6.0000    0.0000    0.0000 C   0  0  0  0  0  0  0  0  0  0  0  0
   -5.2500   -1.2990    0.0000 N   0  0  0  0  0  0  0  0  0  0  0  0
   -6.0000   -2.5981    0.0000 C   0  0  0  0  0  0  0  0  0  0  0  0
   -3.7500   -1.2990    0.0000 C   0  0  0  0  0  0  0  0  0  0  0  0
   -3.0000   -2.5981    0.0000 C   0  0  0  0  0  0  0  0  0  0  0  0
   -1.5000   -2.5981    0.0000 C   0  0  0  0  0  0  0  0  0  0  0  0
   -0.3853   -3.6018    0.0000 C   0  0  0  0  0  0  0  0  0  0  0  0
   -0.5421   -5.0936    0.0000 Br  0  0  0  0  0  0  0  0  0  0  0  0
    0.9138   -2.8518    0.0000 N   0  0  0  0  0  0  0  0  0  0  0  0
    0.7500   -1.2990    0.0000 C   0  0  0  0  0  0  0  0  0  0  0  0
    1.5000    0.0000    0.0000 C   0  0  0  0  0  0  0  0  0  0  0  0
    0.7500    1.2990    0.0000 C   0  0  0  0  0  0  0  0  0  0  0  0
   -0.7500    1.2990    0.0000 C   0  0  0  0  0  0  0  0  0  0  0  0
   -1.5000   -0.0000    0.0000 C   0  0  0  0  0  0  0  0  0  0  0  0
   -3.0000    0.0000    0.0000 C   0  0  0  0  0  0  0  0  0  0  0  0
   -3.7500    1.2990    0.0000 C   0  0  0  0  0  0  0  0  0  0  0  0
   -0.7500   -1.2990    0.0000 C   0  0  0  0  0  0  0  0  0  0  0  0
   -7.0037    6.3109    0.0000 O   0  0  0  0  0  0  0  0  0  0  0  0
   -6.2537    7.6099    0.0000 C   0  0  0  0  0  0  0  0  0  0  0  0
   -7.7455    7.7667    0.0000 O   0  0  0  0  0  0  0  0  0  0  0  0
   -6.7172    9.0365    0.0000 C   0  0  0  0  0  0  0  0  0  0  0  0
   -8.0875    9.6466    0.0000 C   0  0  0  0  0  0  0  0  0  0  0  0
   -7.9307   11.1384    0.0000 C   0  0  0  0  0  0  0  0  0  0  0  0
   -6.4635   11.4502    0.0000 C   0  0  0  0  0  0  0  0  0  0  0  0
   -5.7135   10.1512    0.0000 N   0  0  0  0  0  0  0  0  0  0  0  0
   -4.2463    9.8393    0.0000 C   0  0  0  0  0  0  0  0  0  0  0  0
   -3.2426   10.9541    0.0000 O   0  0  0  0  0  0  0  0  0  0  0  0
   -7.2135    4.3145    0.0000 C   0  0  0  0  0  0  0  0  0  0  0  0
   -8.5838    4.9246    0.0000 C   0  0  0  0  0  0  0  0  0  0  0  0
   -7.2307    3.3305    0.0000 C   0  0  0  0  0  0  0  0  0  0  0  0
  1  2  1  0
  2  3  1  0
  2  4  1  0
  5  4  1  6
  5  6  1  0
  6  7  1  0
  7  8  2  0
  7  9  1  0
  9 10  1  6
 10 11  1  0
 11 12  2  0
 13 11  1  6
 13 14  1  0
 14 15  1  0
 15 16  1  0
 15 17  1  0
 17 18  1  1
 18 19  1  0
 19 20  2  0
 20 21  1  0
 20 22  1  0
 22 23  1  0
 23 24  2  0
 24 25  1  0
 25 26  2  0
 26 27  1  0
 27 28  1  0
 28 29  2  0
 27 30  2  0
  9 31  1  0
 31 32  1  0
 32 33  1  6
 32 34  1  0
 34 35  1  6
 35 36  1  0
 36 37  1  0
 37 38  1  0
 38 39  1  0
 39 40  2  0
  9 41  1  0
 41 42  1  0
 41 43  1  0
 39  5  1  0
 32  6  1  0
 29 13  1  0
 28 17  1  0
 30 19  1  0
 30 23  1  0
 38 34  1  0
M  END
$$$$
674454
     RDKit          2D

 48 53  0  0  0  0  0  0  0  0999 V2000
    0.1554    8.9037    0.0000 C   0  0  0  0  0  0  0  0  0  0  0  0
   -1.3119    9.2156    0.0000 C   0  0  0  0  0  0  0  0  0  0  0  0
   -1.7754   10.6422    0.0000 C   0  0  0  0  0  0  0  0  0  0  0  0
   -2.3156    8.1009    0.0000 C   0  0  0  0  0  0  0  0  0  0  0  0
   -3.7828    8.4128    0.0000 C   0  0  0  0  0  0  0  0  0  0  0  0
   -4.7865    7.2980    0.0000 N   0  0  0  0  0  0  0  0  0  0  0  0
   -4.6297    5.8063    0.0000 C   0  0  0  0  0  0  0  0  0  0  0  0
   -3.3306    5.0563    0.0000 O   0  0  0  0  0  0  0  0  0  0  0  0
   -6.0000    5.1962    0.0000 C   0  0  0  0  0  0  0  0  0  0  0  0
   -5.2500    3.8971    0.0000 N   0  0  0  0  0  0  0  0  0  0  0  0
   -6.0000    2.5981    0.0000 C   0  0  0  0  0  0  0  0  0  0  0  0
   -6.9768    2.4781    0.0000 O   0  0  0  0  0  0  0  0  0  0  0  0
   -5.2500    1.2990    0.0000 C   0  0  0  0  0  0  0  0  0  0  0  0
   -6.0000    0.0000    0.0000 C   0  0  0  0  0  0  0  0  0  0  0  0
   -5.2500   -1.2990    0.0000 N   0  0  0  0  0  0  0  0  0  0  0  0
   -6.0000   -2.5981    0.0000 C   0  0  0  0  0  0  0  0  0  0  0  0
   -3.7500   -1.2990    0.0000 C   0  0  0  0  0  0  0  0  0  0  0  0
   -3.0000   -2.5981    0.0000 C   0  0  0  0  0  0  0  0  0  0  0  0
   -1.5000   -2.5981    0.0000 C   0  0  0  0  0  0  0  0  0  0  0  0
   -0.3853   -3.6018    0.0000 C   0  0  0  0  0  0  0  0  0  0  0  0
   -0.5421   -5.0936    0.0000 Br  0  0  0  0  0  0  0  0  0  0  0  0
    0.9138   -2.8518    0.0000 N   0  0  0  0  0  0  0  0  0  0  0  0
    0.7500   -1.2990    0.0000 C   0  0  0  0  0  0  0  0  0  0  0  0
    1.5000    0.0000    0.0000 C   0  0  0  0  0  0  0  0  0  0  0  0
    0.7500    1.2990    0.0000 C   0  0  0  0  0  0  0  0  0  0  0  0
   -0.7500    1.2990    0.0000 C   0  0  0  0  0  0  0  0  0  0  0  0
   -1.5000   -0.0000    0.0000 C   0  0  0  0  0  0  0  0  0  0  0  0
   -3.0000    0.0000    0.0000 C   0  0  0  0  0  0  0  0  0  0  0  0
   -3.7500    1.2990    0.0000 C   0  0  0  0  0  0  0  0  0  0  0  0
   -0.7500   -1.2990    0.0000 C   0  0  0  0  0  0  0  0  0  0  0  0
   -7.0037    6.3109    0.0000 O   0  0  0  0  0  0  0  0  0  0  0  0
   -6.2537    7.6099    0.0000 C   0  0  0  0  0  0  0  0  0  0  0  0
   -7.7455    7.7667    0.0000 O   0  0  0  0  0  0  0  0  0  0  0  0
   -6.7172    9.0365    0.0000 C   0  0  0  0  0  0  0  0  0  0  0  0
   -8.0875    9.6466    0.0000 C   0  0  0  0  0  0  0  0  0  0  0  0
   -7.9307   11.1384    0.0000 C   0  0  0  0  0  0  0  0  0  0  0  0
   -6.4635   11.4502    0.0000 C   0  0  0  0  0  0  0  0  0  0  0  0
   -5.7135   10.1512    0.0000 N   0  0  0  0  0  0  0  0  0  0  0  0
   -4.2463    9.8393    0.0000 C   0  0  0  0  0  0  0  0  0  0  0  0
   -3.2426   10.9541    0.0000 O   0  0  0  0  0  0  0  0  0  0  0  0
   -7.2135    4.3145    0.0000 C   0  0  0  0  0  0  0  0  0  0  0  0
   -8.5838    4.9246    0.0000 C   0  0  0  0  0  0  0  0  0  0  0  0
   -7.2307    3.3305    0.0000 C   0  0  0  0  0  0  0  0  0  0  0  0
    2.5000    0.0000    0.0000 C   0  0  0  0  0  0  0  0  0  0  0  0
    3.7990    0.7500    0.0000 S   0  0  0  0  0  0  0  0  0  0  0  0
    4.5490   -0.5490    0.0000 O   0  0  0  0  0  0  0  0  0  0  0  0
    3.0490    2.0490    0.0000 O   0  0  0  0  0  0  0  0  0  0  0  0
    5.0981    1.5000    0.0000 O   0  0  0  0  0  0  0  0  0  0  0  0
  1  2  1  0
  2  3  1  0
  2  4  1  0
  5  4  1  6
  5  6  1  0
  6  7  1  0
  7  8  2  0
  7  9  1  0
  9 10  1  6
 10 11  1  0
 11 12  2  0
 13 11  1  6
 13 14  1  0
 14 15  1  0
 15 16  1  0
 15 17  1  0
 17 18  1  1
 18 19  1  0
 19 20  2  0
 20 21  1  0
 20 22  1  0
 22 23  1  0
 23 24  2  0
 24 25  1  0
 25 26  2  0
 26 27  1  0
 27 28  1  0
 28 29  2  0
 27 30  2  0
  9 31  1  0
 31 32  1  0
 32 33  1  6
 32 34  1  0
 34 35  1  6
 35 36  1  0
 36 37  1  0
 37 38  1  0
 38 39  1  0
 39 40  2  0
  9 41  1  0
 41 42  1  0
 41 43  1  0
 44 45  1  0
 45 46  2  0
 45 47  2  0
 45 48  1  0
 39  5  1  0
 32  6  1  0
 29 13  1  0
 28 17  1  0
 30 19  1  0
 30 23  1  0
 38 34  1  0
M  END
$$$$
136161
     RDKit          2D

 11 10  0  0  0  0  0  0  0  0999 V2000
    0.0000    0.0000    0.0000 C   0  0  0  0  0  0  0  0  0  0  0  0
    1.2990    0.7500    0.0000 C   0  0  0  0  0  0  0  0  0  0  0  0
    2.5981   -0.0000    0.0000 C   0  0  0  0  0  0  0  0  0  0  0  0
    1.2990    2.2500    0.0000 C   0  0  0  0  0  0  0  0  0  0  0  0
    2.5981    3.0000    0.0000 C   0  0  0  0  0  0  0  0  0  0  0  0
    3.8971    2.2500    0.0000 C   0  0  0  0  0  0  0  0  0  0  0  0
    5.1962    3.0000    0.0000 N   0  0  0  0  0  0  0  0  0  0  0  0
    2.5981    4.5000    0.0000 C   0  0  0  0  0  0  0  0  0  0  0  0
    3.8971    5.2500    0.0000 C   0  0  0  0  0  0  0  0  0  0  0  0
    5.1962    4.5000    0.0000 O   0  0  0  0  0  0  0  0  0  0  0  0
    3.8971    6.7500    0.0000 O   0  0  0  0  0  0  0  0  0  0  0  0
  1  2  1  0
  2  3  1  0
  2  4  1  0
  5  4  1  1
  5  6  1  0
  6  7  1  0
  5  8  1  0
  8  9  1  0
  9 10  2  0
  9 11  1  0
M  END
$$$$
1927281
     RDKit          2D

 34 35  0  0  0  0  0  0  0  0999 V2000
   -3.0000  -10.3923    0.0000 C   0  0  0  0  0  0  0  0  0  0  0  0
   -1.5000  -10.3923    0.0000 C   0  0  0  0  0  0  0  0  0  0  0  0
   -0.7500  -11.6913    0.0000 C   0  0  0  0  0  0  0  0  0  0  0  0
   -0.7500   -9.0933    0.0000 C   0  0  0  0  0  0  0  0  0  0  0  0
    0.7500   -9.0933    0.0000 C   0  0  0  0  0  0  0  0  0  0  0  0
    1.5000   -7.7942    0.0000 N   0  0  0  0  0  0  0  0  0  0  0  0
    0.7500   -6.4952    0.0000 C   0  0  0  0  0  0  0  0  0  0  0  0
   -0.7500   -6.4952    0.0000 O   0  0  0  0  0  0  0  0  0  0  0  0
    1.5000   -5.1962    0.0000 C   0  0  0  0  0  0  0  0  0  0  0  0
    0.7500   -3.8971    0.0000 N   0  0  0  0  0  0  0  0  0  0  0  0
    1.5000   -2.5981    0.0000 C   0  0  0  0  0  0  0  0  0  0  0  0
    3.0000   -2.5981    0.0000 O   0  0  0  0  0  0  0  0  0  0  0  0
    0.7500   -1.2990    0.0000 C   0  0  0  0  0  0  0  0  0  0  0  0
    1.5000    0.0000    0.0000 C   0  0  0  0  0  0  0  0  0  0  0  0
    0.7500    1.2990    0.0000 C   0  0  0  0  0  0  0  0  0  0  0  0
    1.5000    2.5981    0.0000 Cl  0  0  0  0  0  0  0  0  0  0  0  0
   -0.7500    1.2990    0.0000 C   0  0  0  0  0  0  0  0  0  0  0  0
   -1.5000    0.0000    0.0000 C   0  0  0  0  0  0  0  0  0  0  0  0
   -0.7500   -1.2990    0.0000 C   0  0  0  0  0  0  0  0  0  0  0  0
   -1.5000   -2.5981    0.0000 Cl  0  0  0  0  0  0  0  0  0  0  0  0
    1.5000  -10.3923    0.0000 B   0  0  0  0  0  0  0  0  0  0  0  0
    0.8899  -11.7626    0.0000 O   0  0  0  0  0  0  0  0  0  0  0  0
    2.0046  -12.7663    0.0000 C   0  0  0  0  0  0  0  0  0  0  0  0
    1.8478  -14.2581    0.0000 O   0  0  0  0  0  0  0  0  0  0  0  0
    3.3037  -12.0163    0.0000 C   0  0  0  0  0  0  0  0  0  0  0  0
    3.9138  -13.3866    0.0000 C   0  0  0  0  0  0  0  0  0  0  0  0
    5.4055  -13.5434    0.0000 C   0  0  0  0  0  0  0  0  0  0  0  0
    6.2872  -12.3299    0.0000 O   0  0  0  0  0  0  0  0  0  0  0  0
    6.0156  -14.9137    0.0000 O   0  0  0  0  0  0  0  0  0  0  0  0
    4.7302  -11.5528    0.0000 C   0  0  0  0  0  0  0  0  0  0  0  0
    5.0421  -10.0856    0.0000 C   0  0  0  0  0  0  0  0  0  0  0  0
    6.4687   -9.6220    0.0000 O   0  0  0  0  0  0  0  0  0  0  0  0
    3.9274   -9.0819    0.0000 O   0  0  0  0  0  0  0  0  0  0  0  0
    2.9918  -10.5491    0.0000 O   0  0  0  0  0  0  0  0  0  0  0  0
  1  2  1  0
  2  3  1  0
  2  4  1  0
  5  4  1  6
  5  6  1  0
  6  7  1  0
  7  8  2  0
  7  9  1  0
  9 10  1  0
 10 11  1  0
 11 12  2  0
 11 13  1  0
 13 14  2  0
 14 15  1  0
 15 16  1  0
 15 17  2  0
 17 18  1  0
 18 19  2  0
 19 20  1  0
  5 21  1  0
 21 22  1  0
 22 23  1  0
 23 24  2  0
 23 25  1  0
 25 26  1  0
 26 27  1  0
 27 28  2  0
 27 29  1  0
 25 30  1  0
 30 31  1  0
 31 32  2  0
 31 33  1  0
 25 34  1  0
 19 13  1  0
 34 21  1  0
M  END
$$$$
11143
     RDKit          2D

 25 26  0  0  0  0  0  0  0  0999 V2000
    6.7500   -6.4952    0.0000 C   0  0  0  0  0  0  0  0  0  0  0  0
    6.0000   -5.1962    0.0000 C   0  0  0  0  0  0  0  0  0  0  0  0
    6.7500   -3.8971    0.0000 C   0  0  0  0  0  0  0  0  0  0  0  0
    4.5000   -5.1962    0.0000 N   0  0  0  0  0  0  0  0  0  0  0  0
    3.7500   -3.8971    0.0000 C   0  0  0  0  0  0  0  0  0  0  0  0
    2.2500   -3.8971    0.0000 C   0  0  0  0  0  0  0  0  0  0  0  0
    1.5000   -2.5981    0.0000 C   0  0  0  0  0  0  0  0  0  0  0  0
    0.2010   -3.3481    0.0000 C   0  0  0  0  0  0  0  0  0  0  0  0
   -1.0981   -2.5981    0.0000 O   0  0  0  0  0  0  0  0  0  0  0  0
    0.2010   -4.8481    0.0000 N   0  0  0  0  0  0  0  0  0  0  0  0
    0.7500   -1.2990    0.0000 C   0  0  0  0  0  0  0  0  0  0  0  0
    1.5000    0.0000    0.0000 C   0  0  0  0  0  0  0  0  0  0  0  0
    0.7500    1.2990    0.0000 C   0  0  0  0  0  0  0  0  0  0  0  0
   -0.7500    1.2990    0.0000 C   0  0  0  0  0  0  0  0  0  0  0  0
   -1.5000    0.0000    0.0000 C   0  0  0  0  0  0  0  0  0  0  0  0
   -0.7500   -1.2990    0.0000 C   0  0  0  0  0  0  0  0  0  0  0  0
    2.7990   -1.8481    0.0000 C   0  0  0  0  0  0  0  0  0  0  0  0
    4.0981   -2.5981    0.0000 C   0  0  0  0  0  0  0  0  0  0  0  0
    5.3971   -1.8481    0.0000 C   0  0  0  0  0  0  0  0  0  0  0  0
    5.3971   -0.3481    0.0000 C   0  0  0  0  0  0  0  0  0  0  0  0
    4.0981    0.4019    0.0000 C   0  0  0  0  0  0  0  0  0  0  0  0
    2.7990   -0.3481    0.0000 N   0  0  0  0  0  0  0  0  0  0  0  0
    3.7500   -6.4952    0.0000 C   0  0  0  0  0  0  0  0  0  0  0  0
    4.5000   -7.7942    0.0000 C   0  0  0  0  0  0  0  0  0  0  0  0
    2.2500   -6.4952    0.0000 C   0  0  0  0  0  0  0  0  0  0  0  0
  1  2  1  0
  2  3  1  0
  2  4  1  0
  4  5  1  0
  5  6  1  0
  6  7  1  0
  7  8  1  0
  8  9  2  0
  8 10  1  0
  7 11  1  0
 11 12  2  0
 12 13  1  0
 13 14  2  0
 14 15  1  0
 15 16  2  0
  7 17  1  0
 17 18  2  0
 18 19  1  0
 19 20  2  0
 20 21  1  0
 21 22  2  0
  4 23  1  0
 23 24  1  0
 23 25  1  0
 16 11  1  0
 22 17  1  0
M  END
$$$$
674971
     RDKit          2D

 30 30  0  0  0  0  0  0  0  0999 V2000
    6.7500   -6.4952    0.0000 C   0  0  0  0  0  0  0  0  0  0  0  0
    6.0000   -5.1962    0.0000 C   0  0  0  0  0  0  0  0  0  0  0  0
    6.7500   -3.8971    0.0000 C   0  0  0  0  0  0  0  0  0  0  0  0
    4.5000   -5.1962    0.0000 N   0  0  0  0  0  0  0  0  0  0  0  0
    3.7500   -3.8971    0.0000 C   0  0  0  0  0  0  0  0  0  0  0  0
    2.2500   -3.8971    0.0000 C   0  0  0  0  0  0  0  0  0  0  0  0
    1.5000   -2.5981    0.0000 C   0  0  0  0  0  0  0  0  0  0  0  0
    0.2010   -3.3481    0.0000 C   0  0  0  0  0  0  0  0  0  0  0  0
   -1.0981   -2.5981    0.0000 O   0  0  0  0  0  0  0  0  0  0  0  0
    0.2010   -4.8481    0.0000 N   0  0  0  0  0  0  0  0  0  0  0  0
    0.7500   -1.2990    0.0000 C   0  0  0  0  0  0  0  0  0  0  0  0
    1.5000    0.0000    0.0000 C   0  0  0  0  0  0  0  0  0  0  0  0
    0.7500    1.2990    0.0000 C   0  0  0  0  0  0  0  0  0  0  0  0
   -0.7500    1.2990    0.0000 C   0  0  0  0  0  0  0  0  0  0  0  0
   -1.5000    0.0000    0.0000 C   0  0  0  0  0  0  0  0  0  0  0  0
   -0.7500   -1.2990    0.0000 C   0  0  0  0  0  0  0  0  0  0  0  0
    2.7990   -1.8481    0.0000 C   0  0  0  0  0  0  0  0  0  0  0  0
    4.0981   -2.5981    0.0000 C   0  0  0  0  0  0  0  0  0  0  0  0
    5.3971   -1.8481    0.0000 C   0  0  0  0  0  0  0  0  0  0  0  0
    5.3971   -0.3481    0.0000 C   0  0  0  0  0  0  0  0  0  0  0  0
    4.0981    0.4019    0.0000 C   0  0  0  0  0  0  0  0  0  0  0  0
    2.7990   -0.3481    0.0000 N   0  0  0  0  0  0  0  0  0  0  0  0
    3.7500   -6.4952    0.0000 C   0  0  0  0  0  0  0  0  0  0  0  0
    4.5000   -7.7942    0.0000 C   0  0  0  0  0  0  0  0  0  0  0  0
    2.2500   -6.4952    0.0000 C   0  0  0  0  0  0  0  0  0  0  0  0
    7.7500    0.0000    0.0000 O   0  0  0  0  0  0  0  0  0  0  0  0
    9.0490    0.7500    0.0000 P   0  0  0  0  0  0  0  0  0  0  0  0
   10.3481    1.5000    0.0000 O   0  0  0  0  0  0  0  0  0  0  0  0
    8.2990    2.0490    0.0000 O   0  0  0  0  0  0  0  0  0  0  0  0
    9.7990   -0.5490    0.0000 O   0  0  0  0  0  0  0  0  0  0  0  0
  1  2  1  0
  2  3  1  0
  2  4  1  0
  4  5  1  0
  5  6  1  0
  6  7  1  0
  7  8  1  0
  8  9  2  0
  8 10  1  0
  7 11  1  0
 11 12  2  0
 12 13  1  0
 13 14  2  0
 14 15  1  0
 15 16  2  0
  7 17  1  0
 17 18  2  0
 18 19  1  0
 19 20  2  0
 20 21  1  0
 21 22  2  0
  4 23  1  0
 23 24  1  0
 23 25  1  0
 26 27  1  0
 27 28  2  0
 27 29  1  0
 27 30  1  0
 16 11  1  0
 22 17  1  0
M  END
$$$$
406189
     RDKit          2D

 35 37  0  0  0  0  0  0  0  0999 V2000
    5.2500    1.2990    0.0000 C   0  0  0  0  0  0  0  0  0  0  0  0
    3.7500    1.2990    0.0000 C   0  0  0  0  0  0  0  0  0  0  0  0
    3.0000    2.5981    0.0000 C   0  0  0  0  0  0  0  0  0  0  0  0
    3.0000    0.0000    0.0000 N   0  0  0  0  0  0  0  0  0  0  0  0
    3.7500   -1.2990    0.0000 C   0  0  0  0  0  0  0  0  0  0  0  0
    5.2500   -1.2990    0.0000 C   0  0  0  0  0  0  0  0  0  0  0  0
    6.0000   -2.5981    0.0000 C   0  0  0  0  0  0  0  0  0  0  0  0
    7.5000   -2.5981    0.0000 C   0  0  0  0  0  0  0  0  0  0  0  0
    8.2500   -3.8971    0.0000 O   0  0  0  0  0  0  0  0  0  0  0  0
    9.7500   -3.8971    0.0000 C   0  0  0  0  0  0  0  0  0  0  0  0
   10.5000   -5.1962    0.0000 C   0  0  0  0  0  0  0  0  0  0  0  0
    9.7500   -6.4952    0.0000 O   0  0  0  0  0  0  0  0  0  0  0  0
   12.0000   -5.1962    0.0000 N   0  0  0  0  0  0  0  0  0  0  0  0
   12.7500   -6.4952    0.0000 S   0  0  0  0  0  0  0  0  0  0  0  0
   11.4510   -7.2452    0.0000 O   0  0  0  0  0  0  0  0  0  0  0  0
   14.0490   -5.7452    0.0000 O   0  0  0  0  0  0  0  0  0  0  0  0
   13.5000   -7.7942    0.0000 C   0  0  0  0  0  0  0  0  0  0  0  0
    1.5000    0.0000    0.0000 C   0  0  0  0  0  0  0  0  0  0  0  0
    0.7500   -1.2990    0.0000 C   0  0  0  0  0  0  0  0  0  0  0  0
   -0.7500   -1.2990    0.0000 N   0  0  0  0  0  0  0  0  0  0  0  0
   -1.5000    0.0000    0.0000 C   0  0  0  0  0  0  0  0  0  0  0  0
   -3.0000    0.0000    0.0000 C   0  0  0  0  0  0  0  0  0  0  0  0
   -3.7500    1.2990    0.0000 C   0  0  0  0  0  0  0  0  0  0  0  0
   -5.2500    1.2990    0.0000 C   0  0  0  0  0  0  0  0  0  0  0  0
   -6.0000    0.0000    0.0000 C   0  0  0  0  0  0  0  0  0  0  0  0
   -5.2500   -1.2990    0.0000 C   0  0  0  0  0  0  0  0  0  0  0  0
   -3.7500   -1.2990    0.0000 C   0  0  0  0  0  0  0  0  0  0  0  0
   -0.7500    1.2990    0.0000 C   0  0  0  0  0  0  0  0  0  0  0  0
    0.7500    1.2990    0.0000 N   0  0  0  0  0  0  0  0  0  0  0  0
   -1.5000    2.5981    0.0000 C   0  0  0  0  0  0  0  0  0  0  0  0
   -0.7500    3.8971    0.0000 C   0  0  0  0  0  0  0  0  0  0  0  0
   -1.5000    5.1962    0.0000 C   0  0  0  0  0  0  0  0  0  0  0  0
   -3.0000    5.1962    0.0000 C   0  0  0  0  0  0  0  0  0  0  0  0
   -3.7500    3.8971    0.0000 C   0  0  0  0  0  0  0  0  0  0  0  0
   -3.0000    2.5981    0.0000 C   0  0  0  0  0  0  0  0  0  0  0  0
  1  2  1  0
  2  3  1  0
  2  4  1  0
  4  5  1  0
  5  6  1  0
  6  7  1  0
  7  8  1  0
  8  9  1  0
  9 10  1  0
 10 11  1  0
 11 12  2  0
 11 13  1  0
 13 14  1  0
 14 15  2  0
 14 16  2  0
 14 17  1  0
  4 18  1  0
 18 19  2  0
 19 20  1  0
 20 21  2  0
 21 22  1  0
 22 23  2  0
 23 24  1  0
 24 25  2  0
 25 26  1  0
 26 27  2  0
 21 28  1  0
 28 29  2  0
 28 30  1  0
 30 31  2  0
 31 32  1  0
 32 33  2  0
 33 34  1  0
 34 35  2  0
 29 18  1  0
 27 22  1  0
 35 30  1  0
M  END
$$$$
321964
     RDKit          2D

 24 25  0  0  0  0  0  0  0  0999 V2000
    0.7500   -9.0933    0.0000 C   0  0  0  0  0  0  0  0  0  0  0  0
    1.5000   -7.7942    0.0000 C   0  0  0  0  0  0  0  0  0  0  0  0
    3.0000   -7.7942    0.0000 C   0  0  0  0  0  0  0  0  0  0  0  0
    0.7500   -6.4952    0.0000 N   0  0  0  0  0  0  0  0  0  0  0  0
    1.5000   -5.1962    0.0000 C   0  0  0  0  0  0  0  0  0  0  0  0
    0.7500   -3.8971    0.0000 C   0  0  0  0  0  0  0  0  0  0  0  0
    1.5000   -2.5981    0.0000 C   0  0  0  0  0  0  0  0  0  0  0  0
    0.7500   -1.2990    0.0000 C   0  0  0  0  0  0  0  0  0  0  0  0
    1.5000    0.0000    0.0000 C   0  0  0  0  0  0  0  0  0  0  0  0
    0.7500    1.2990    0.0000 C   0  0  0  0  0  0  0  0  0  0  0  0
   -0.7500    1.2990    0.0000 C   0  0  0  0  0  0  0  0  0  0  0  0
   -1.5000    0.0000    0.0000 C   0  0  0  0  0  0  0  0  0  0  0  0
   -0.7500   -1.2990    0.0000 C   0  0  0  0  0  0  0  0  0  0  0  0
    3.0000   -2.5981    0.0000 C   0  0  0  0  0  0  0  0  0  0  0  0
    3.7500   -3.8971    0.0000 C   0  0  0  0  0  0  0  0  0  0  0  0
    5.2500   -3.8971    0.0000 C   0  0  0  0  0  0  0  0  0  0  0  0
    6.0000   -5.1962    0.0000 C   0  0  0  0  0  0  0  0  0  0  0  0
    6.0000   -2.5981    0.0000 C   0  0  0  0  0  0  0  0  0  0  0  0
    5.2500   -1.2990    0.0000 C   0  0  0  0  0  0  0  0  0  0  0  0
    3.7500   -1.2990    0.0000 C   0  0  0  0  0  0  0  0  0  0  0  0
    3.0000   -0.0000    0.0000 O   0  0  0  0  0  0  0  0  0  0  0  0
   -0.7500   -6.4952    0.0000 C   0  0  0  0  0  0  0  0  0  0  0  0
   -1.5000   -7.7942    0.0000 C   0  0  0  0  0  0  0  0  0  0  0  0
   -1.5000   -5.1962    0.0000 C   0  0  0  0  0  0  0  0  0  0  0  0
  1  2  1  0
  2  3  1  0
  2  4  1  0
  4  5  1  0
  5  6  1  0
  7  6  1  6
  7  8  1  0
  8  9  2  0
  9 10  1  0
 10 11  2  0
 11 12  1  0
 12 13  2  0
  7 14  1  0
 14 15  2  0
 15 16  1  0
 16 17  1  0
 16 18  2  0
 18 19  1  0
 19 20  2  0
 20 21  1  0
  4 22  1  0
 22 23  1  0
 22 24  1  0
 13  8  1  0
 20 14  1  0
M  END
$$$$
1102940
     RDKit          2D

 34 34  0  0  0  0  0  0  0  0999 V2000
    0.7500   -9.0933    0.0000 C   0  0  0  0  0  0  0  0  0  0  0  0
    1.5000   -7.7942    0.0000 C   0  0  0  0  0  0  0  0  0  0  0  0
    3.0000   -7.7942    0.0000 C   0  0  0  0  0  0  0  0  0  0  0  0
    0.7500   -6.4952    0.0000 N   0  0  0  0  0  0  0  0  0  0  0  0
    1.5000   -5.1962    0.0000 C   0  0  0  0  0  0  0  0  0  0  0  0
    0.7500   -3.8971    0.0000 C   0  0  0  0  0  0  0  0  0  0  0  0
    1.5000   -2.5981    0.0000 C   0  0  0  0  0  0  0  0  0  0  0  0
    0.7500   -1.2990    0.0000 C   0  0  0  0  0  0  0  0  0  0  0  0
    1.5000    0.0000    0.0000 C   0  0  0  0  0  0  0  0  0  0  0  0
    0.7500    1.2990    0.0000 C   0  0  0  0  0  0  0  0  0  0  0  0
   -0.7500    1.2990    0.0000 C   0  0  0  0  0  0  0  0  0  0  0  0
   -1.5000    0.0000    0.0000 C   0  0  0  0  0  0  0  0  0  0  0  0
   -0.7500   -1.2990    0.0000 C   0  0  0  0  0  0  0  0  0  0  0  0
    3.0000   -2.5981    0.0000 C   0  0  0  0  0  0  0  0  0  0  0  0
    3.7500   -3.8971    0.0000 C   0  0  0  0  0  0  0  0  0  0  0  0
    5.2500   -3.8971    0.0000 C   0  0  0  0  0  0  0  0  0  0  0  0
    6.0000   -5.1962    0.0000 C   0  0  0  0  0  0  0  0  0  0  0  0
    6.0000   -2.5981    0.0000 C   0  0  0  0  0  0  0  0  0  0  0  0
    5.2500   -1.2990    0.0000 C   0  0  0  0  0  0  0  0  0  0  0  0
    3.7500   -1.2990    0.0000 C   0  0  0  0  0  0  0  0  0  0  0  0
    3.0000   -0.0000    0.0000 O   0  0  0  0  0  0  0  0  0  0  0  0
   -0.7500   -6.4952    0.0000 C   0  0  0  0  0  0  0  0  0  0  0  0
   -1.5000   -7.7942    0.0000 C   0  0  0  0  0  0  0  0  0  0  0  0
   -1.5000   -5.1962    0.0000 C   0  0  0  0  0  0  0  0  0  0  0  0
    9.5981   -1.5000    0.0000 O   0  0  0  0  0  0  0  0  0  0  0  0
    9.5981    0.0000    0.0000 C   0  0  0  0  0  0  0  0  0  0  0  0
   10.8971    0.7500    0.0000 C   0  0  0  0  0  0  0  0  0  0  0  0
   10.8971    2.2500    0.0000 O   0  0  0  0  0  0  0  0  0  0  0  0
   12.1962   -0.0000    0.0000 C   0  0  0  0  0  0  0  0  0  0  0  0
   12.1962   -1.5000    0.0000 O   0  0  0  0  0  0  0  0  0  0  0  0
   13.4952    0.7500    0.0000 O   0  0  0  0  0  0  0  0  0  0  0  0
    8.2990    0.7500    0.0000 C   0  0  0  0  0  0  0  0  0  0  0  0
    8.2990    2.2500    0.0000 O   0  0  0  0  0  0  0  0  0  0  0  0
    7.0000    0.0000    0.0000 O   0  0  0  0  0  0  0  0  0  0  0  0
  1  2  1  0
  2  3  1  0
  2  4  1  0
  4  5  1  0
  5  6  1  0
  7  6  1  6
  7  8  1  0
  8  9  2  0
  9 10  1  0
 10 11  2  0
 11 12  1  0
 12 13  2  0
  7 14  1  0
 14 15  2  0
 15 16  1  0
 16 17  1  0
 16 18  2  0
 18 19  1  0
 19 20  2  0
 20 21  1  0
  4 22  1  0
 22 23  1  0
 22 24  1  0
 25 26  1  0
 26 27  1  0
 27 28  1  0
 27 29  1  0
 29 30  2  0
 29 31  1  0
 26 32  1  0
 32 33  2  0
 32 34  1  0
 13  8  1  0
 20 14  1  0
M  END
$$$$
675715
     RDKit          2D

 30 31  0  0  0  0  0  0  0  0999 V2000
    0.7500   -9.0933    0.0000 C   0  0  0  0  0  0  0  0  0  0  0  0
    1.5000   -7.7942    0.0000 C   0  0  0  0  0  0  0  0  0  0  0  0
    3.0000   -7.7942    0.0000 C   0  0  0  0  0  0  0  0  0  0  0  0
    0.7500   -6.4952    0.0000 N   0  0  0  0  0  0  0  0  0  0  0  0
    1.5000   -5.1962    0.0000 C   0  0  0  0  0  0  0  0  0  0  0  0
    0.7500   -3.8971    0.0000 C   0  0  0  0  0  0  0  0  0  0  0  0
    1.5000   -2.5981    0.0000 C   0  0  0  0  0  0  0  0  0  0  0  0
    0.7500   -1.2990    0.0000 C   0  0  0  0  0  0  0  0  0  0  0  0
    1.5000    0.0000    0.0000 C   0  0  0  0  0  0  0  0  0  0  0  0
    0.7500    1.2990    0.0000 C   0  0  0  0  0  0  0  0  0  0  0  0
   -0.7500    1.2990    0.0000 C   0  0  0  0  0  0  0  0  0  0  0  0
   -1.5000    0.0000    0.0000 C   0  0  0  0  0  0  0  0  0  0  0  0
   -0.7500   -1.2990    0.0000 C   0  0  0  0  0  0  0  0  0  0  0  0
    3.0000   -2.5981    0.0000 C   0  0  0  0  0  0  0  0  0  0  0  0
    3.7500   -3.8971    0.0000 C   0  0  0  0  0  0  0  0  0  0  0  0
    5.2500   -3.8971    0.0000 C   0  0  0  0  0  0  0  0  0  0  0  0
    6.0000   -5.1962    0.0000 C   0  0  0  0  0  0  0  0  0  0  0  0
    5.2500   -6.4952    0.0000 O   0  0  0  0  0  0  0  0  0  0  0  0
    6.0000   -2.5981    0.0000 C   0  0  0  0  0  0  0  0  0  0  0  0
    5.2500   -1.2990    0.0000 C   0  0  0  0  0  0  0  0  0  0  0  0
    3.7500   -1.2990    0.0000 C   0  0  0  0  0  0  0  0  0  0  0  0
    3.0000   -0.0000    0.0000 O   0  0  0  0  0  0  0  0  0  0  0  0
    3.7500    1.2990    0.0000 C   0  0  0  0  0  0  0  0  0  0  0  0
    5.2500    1.2990    0.0000 O   0  0  0  0  0  0  0  0  0  0  0  0
    3.0000    2.5981    0.0000 C   0  0  0  0  0  0  0  0  0  0  0  0
    3.7500    3.8971    0.0000 C   0  0  0  0  0  0  0  0  0  0  0  0
    1.5000    2.5981    0.0000 C   0  0  0  0  0  0  0  0  0  0  0  0
   -0.7500   -6.4952    0.0000 C   0  0  0  0  0  0  0  0  0  0  0  0
   -1.5000   -7.7942    0.0000 C   0  0  0  0  0  0  0  0  0  0  0  0
   -1.5000   -5.1962    0.0000 C   0  0  0  0  0  0  0  0  0  0  0  0
  1  2  1  0
  2  3  1  0
  2  4  1  0
  4  5  1  0
  5  6  1  0
  7  6  1  6
  7  8  1  0
  8  9  2  0
  9 10  1  0
 10 11  2  0
 11 12  1  0
 12 13  2  0
  7 14  1  0
 14 15  2  0
 15 16  1  0
 16 17  1  0
 17 18  1  0
 16 19  2  0
 19 20  1  0
 20 21  2  0
 21 22  1  0
 22 23  1  0
 23 24  2  0
 23 25  1  0
 25 26  1  0
 25 27  1  0
  4 28  1  0
 28 29  1  0
 28 30  1  0
 13  8  1  0
 21 14  1  0
M  END
$$$$
675716
     RDKit          2D

 38 38  0  0  0  0  0  0  0  0999 V2000
    0.7500   -9.0933    0.0000 C   0  0  0  0  0  0  0  0  0  0  0  0
    1.5000   -7.7942    0.0000 C   0  0  0  0  0  0  0  0  0  0  0  0
    3.0000   -7.7942    0.0000 C   0  0  0  0  0  0  0  0  0  0  0  0
    0.7500   -6.4952    0.0000 N   0  0  0  0  0  0  0  0  0  0  0  0
    1.5000   -5.1962    0.0000 C   0  0  0  0  0  0  0  0  0  0  0  0
    0.7500   -3.8971    0.0000 C   0  0  0  0  0  0  0  0  0  0  0  0
    1.5000   -2.5981    0.0000 C   0  0  0  0  0  0  0  0  0  0  0  0
    0.7500   -1.2990    0.0000 C   0  0  0  0  0  0  0  0  0  0  0  0
    1.5000    0.0000    0.0000 C   0  0  0  0  0  0  0  0  0  0  0  0
    0.7500    1.2990    0.0000 C   0  0  0  0  0  0  0  0  0  0  0  0
   -0.7500    1.2990    0.0000 C   0  0  0  0  0  0  0  0  0  0  0  0
   -1.5000    0.0000    0.0000 C   0  0  0  0  0  0  0  0  0  0  0  0
   -0.7500   -1.2990    0.0000 C   0  0  0  0  0  0  0  0  0  0  0  0
    3.0000   -2.5981    0.0000 C   0  0  0  0  0  0  0  0  0  0  0  0
    3.7500   -3.8971    0.0000 C   0  0  0  0  0  0  0  0  0  0  0  0
    5.2500   -3.8971    0.0000 C   0  0  0  0  0  0  0  0  0  0  0  0
    6.0000   -5.1962    0.0000 C   0  0  0  0  0  0  0  0  0  0  0  0
    5.2500   -6.4952    0.0000 O   0  0  0  0  0  0  0  0  0  0  0  0
    6.0000   -2.5981    0.0000 C   0  0  0  0  0  0  0  0  0  0  0  0
    5.2500   -1.2990    0.0000 C   0  0  0  0  0  0  0  0  0  0  0  0
    3.7500   -1.2990    0.0000 C   0  0  0  0  0  0  0  0  0  0  0  0
    3.0000   -0.0000    0.0000 O   0  0  0  0  0  0  0  0  0  0  0  0
    3.7500    1.2990    0.0000 C   0  0  0  0  0  0  0  0  0  0  0  0
    5.2500    1.2990    0.0000 O   0  0  0  0  0  0  0  0  0  0  0  0
    3.0000    2.5981    0.0000 C   0  0  0  0  0  0  0  0  0  0  0  0
    3.7500    3.8971    0.0000 C   0  0  0  0  0  0  0  0  0  0  0  0
    1.5000    2.5981    0.0000 C   0  0  0  0  0  0  0  0  0  0  0  0
   -0.7500   -6.4952    0.0000 C   0  0  0  0  0  0  0  0  0  0  0  0
   -1.5000   -7.7942    0.0000 C   0  0  0  0  0  0  0  0  0  0  0  0
   -1.5000   -5.1962    0.0000 C   0  0  0  0  0  0  0  0  0  0  0  0
    7.0000   -1.2990    0.0000 O   0  0  0  0  0  0  0  0  0  0  0  0
    8.5000   -1.2990    0.0000 C   0  0  0  0  0  0  0  0  0  0  0  0
    9.2500   -2.5981    0.0000 O   0  0  0  0  0  0  0  0  0  0  0  0
    9.2500    0.0000    0.0000 C   0  0  0  0  0  0  0  0  0  0  0  0
   10.7500    0.0000    0.0000 C   0  0  0  0  0  0  0  0  0  0  0  0
   11.5000    1.2990    0.0000 C   0  0  0  0  0  0  0  0  0  0  0  0
   10.7500    2.5981    0.0000 O   0  0  0  0  0  0  0  0  0  0  0  0
   13.0000    1.2990    0.0000 O   0  0  0  0  0  0  0  0  0  0  0  0
  1  2  1  0
  2  3  1  0
  2  4  1  0
  4  5  1  0
  5  6  1  0
  7  6  1  6
  7  8  1  0
  8  9  2  0
  9 10  1  0
 10 11  2  0
 11 12  1  0
 12 13  2  0
  7 14  1  0
 14 15  2  0
 15 16  1  0
 16 17  1  0
 17 18  1  0
 16 19  2  0
 19 20  1  0
 20 21  2  0
 21 22  1  0
 22 23  1  0
 23 24  2  0
 23 25  1  0
 25 26  1  0
 25 27  1  0
  4 28  1  0
 28 29  1  0
 28 30  1  0
 31 32  1  0
 32 33  2  0
 32 34  1  0
 34 35  2  0
 35 36  1  0
 36 37  2  0
 36 38  1  0
 13  8  1  0
 21 14  1  0
M  END
$$$$
1450253
     RDKit          2D

 30 32  0  0  0  0  0  0  0  0999 V2000
   -3.7548   -2.1855    0.0000 C   0  0  0  0  0  0  0  0  0  0  0  0
   -2.6401   -3.1891    0.0000 C   0  0  0  0  0  0  0  0  0  0  0  0
   -2.9520   -4.6564    0.0000 C   0  0  0  0  0  0  0  0  0  0  0  0
   -1.2135   -2.7256    0.0000 N   0  0  0  0  0  0  0  0  0  0  0  0
   -0.0000   -3.6073    0.0000 C   0  0  0  0  0  0  0  0  0  0  0  0
   -0.0000   -5.1073    0.0000 C   0  0  0  0  0  0  0  0  0  0  0  0
   -1.2990   -5.8573    0.0000 C   0  0  0  0  0  0  0  0  0  0  0  0
   -1.2990   -7.3573    0.0000 C   0  0  0  0  0  0  0  0  0  0  0  0
   -0.0000   -8.1073    0.0000 O   0  0  0  0  0  0  0  0  0  0  0  0
   -2.5981   -8.1073    0.0000 C   0  0  0  0  0  0  0  0  0  0  0  0
   -2.5981   -9.6073    0.0000 C   0  0  0  0  0  0  0  0  0  0  0  0
   -1.2990  -10.3573    0.0000 O   0  0  0  0  0  0  0  0  0  0  0  0
   -3.8971  -10.3573    0.0000 C   0  0  0  0  0  0  0  0  0  0  0  0
   -3.8971  -11.8573    0.0000 C   0  0  0  0  0  0  0  0  0  0  0  0
   -2.5981  -12.6073    0.0000 O   0  0  0  0  0  0  0  0  0  0  0  0
   -5.1962  -12.6073    0.0000 O   0  0  0  0  0  0  0  0  0  0  0  0
    1.2135   -2.7256    0.0000 C   0  0  0  0  0  0  0  0  0  0  0  0
    2.6401   -3.1891    0.0000 C   0  0  0  0  0  0  0  0  0  0  0  0
    2.9520   -4.6564    0.0000 C   0  0  0  0  0  0  0  0  0  0  0  0
    4.3786   -5.1199    0.0000 C   0  0  0  0  0  0  0  0  0  0  0  0
    5.4933   -4.1162    0.0000 C   0  0  0  0  0  0  0  0  0  0  0  0
    6.9199   -4.5797    0.0000 F   0  0  0  0  0  0  0  0  0  0  0  0
    5.1814   -2.6490    0.0000 C   0  0  0  0  0  0  0  0  0  0  0  0
    3.7548   -2.1855    0.0000 C   0  0  0  0  0  0  0  0  0  0  0  0
    0.7500   -1.2990    0.0000 C   0  0  0  0  0  0  0  0  0  0  0  0
    1.5000    0.0000    0.0000 C   0  0  0  0  0  0  0  0  0  0  0  0
    0.7500    1.2990    0.0000 C   0  0  0  0  0  0  0  0  0  0  0  0
   -0.7500    1.2990    0.0000 C   0  0  0  0  0  0  0  0  0  0  0  0
   -1.5000    0.0000    0.0000 C   0  0  0  0  0  0  0  0  0  0  0  0
   -0.7500   -1.2990    0.0000 C   0  0  0  0  0  0  0  0  0  0  0  0
  1  2  1  0
  2  3  1  0
  2  4  1  0
  4  5  1  0
  5  6  1  0
  6  7  2  0
  7  8  1  0
  8  9  1  0
  8 10  1  0
 10 11  1  0
 11 12  1  0
 11 13  1  0
 13 14  1  0
 14 15  2  0
 14 16  1  0
  5 17  2  0
 17 18  1  0
 18 19  2  0
 19 20  1  0
 20 21  2  0
 21 22  1  0
 21 23  1  0
 23 24  2  0
 17 25  1  0
 25 26  2  0
 26 27  1  0
 27 28  2  0
 28 29  1  0
 29 30  2  0
 30  4  1  0
 24 18  1  0
 30 25  1  0
M  END
$$$$
320522
     RDKit          2D

 17 17  0  0  0  0  0  0  0  0999 V2000
    9.7500   -3.8971    0.0000 C   0  0  0  0  0  0  0  0  0  0  0  0
    8.2500   -3.8971    0.0000 C   0  0  0  0  0  0  0  0  0  0  0  0
    7.5000   -5.1962    0.0000 C   0  0  0  0  0  0  0  0  0  0  0  0
    7.5000   -2.5981    0.0000 N   0  0  0  0  0  0  0  0  0  0  0  0
    6.0000   -2.5981    0.0000 C   0  0  0  0  0  0  0  0  0  0  0  0
    5.2500   -3.8971    0.0000 N   0  0  0  0  0  0  0  0  0  0  0  0
    5.2500   -1.2990    0.0000 N   0  0  0  0  0  0  0  0  0  0  0  0
    3.7500   -1.2990    0.0000 C   0  0  0  0  0  0  0  0  0  0  0  0
    3.0000   -2.5981    0.0000 N   0  0  0  0  0  0  0  0  0  0  0  0
    3.0000    0.0000    0.0000 N   0  0  0  0  0  0  0  0  0  0  0  0
    1.5000    0.0000    0.0000 C   0  0  0  0  0  0  0  0  0  0  0  0
    0.7500   -1.2990    0.0000 C   0  0  0  0  0  0  0  0  0  0  0  0
   -0.7500   -1.2990    0.0000 C   0  0  0  0  0  0  0  0  0  0  0  0
   -1.5000    0.0000    0.0000 C   0  0  0  0  0  0  0  0  0  0  0  0
   -3.0000    0.0000    0.0000 Cl  0  0  0  0  0  0  0  0  0  0  0  0
   -0.7500    1.2990    0.0000 C   0  0  0  0  0  0  0  0  0  0  0  0
    0.7500    1.2990    0.0000 C   0  0  0  0  0  0  0  0  0  0  0  0
  1  2  1  0
  2  3  1  0
  2  4  1  0
  4  5  1  0
  5  6  2  0
  5  7  1  0
  7  8  1  0
  8  9  2  0
  8 10  1  0
 10 11  1  0
 11 12  2  0
 12 13  1  0
 13 14  2  0
 14 15  1  0
 14 16  1  0
 16 17  2  0
 17 11  1  0
M  END
$$$$
180329
     RDKit          2D

 24 25  0  0  0  0  0  0  0  0999 V2000
    9.0000   -2.5981    0.0000 C   0  0  0  0  0  0  0  0  0  0  0  0
    7.5000   -2.5981    0.0000 C   0  0  0  0  0  0  0  0  0  0  0  0
    6.7500   -3.8971    0.0000 C   0  0  0  0  0  0  0  0  0  0  0  0
    6.7500   -1.2990    0.0000 N   0  0  0  0  0  0  0  0  0  0  0  0
    5.2500   -1.2990    0.0000 C   0  0  0  0  0  0  0  0  0  0  0  0
    4.5000   -2.5981    0.0000 O   0  0  0  0  0  0  0  0  0  0  0  0
    4.5000    0.0000    0.0000 N   0  0  0  0  0  0  0  0  0  0  0  0
    3.0000    0.0000    0.0000 S   0  0  0  0  0  0  0  0  0  0  0  0
    3.0000   -1.5000    0.0000 O   0  0  0  0  0  0  0  0  0  0  0  0
    3.0000    1.5000    0.0000 O   0  0  0  0  0  0  0  0  0  0  0  0
    1.5000    0.0000    0.0000 C   0  0  0  0  0  0  0  0  0  0  0  0
    0.7500   -1.2990    0.0000 C   0  0  0  0  0  0  0  0  0  0  0  0
   -0.7500   -1.2990    0.0000 N   0  0  0  0  0  0  0  0  0  0  0  0
   -1.5000    0.0000    0.0000 C   0  0  0  0  0  0  0  0  0  0  0  0
   -0.7500    1.2990    0.0000 C   0  0  0  0  0  0  0  0  0  0  0  0
    0.7500    1.2990    0.0000 C   0  0  0  0  0  0  0  0  0  0  0  0
    1.5000    2.5981    0.0000 N   0  0  0  0  0  0  0  0  0  0  0  0
    0.7500    3.8971    0.0000 C   0  0  0  0  0  0  0  0  0  0  0  0
   -0.7500    3.8971    0.0000 C   0  0  0  0  0  0  0  0  0  0  0  0
   -1.5000    5.1962    0.0000 C   0  0  0  0  0  0  0  0  0  0  0  0
   -0.7500    6.4952    0.0000 C   0  0  0  0  0  0  0  0  0  0  0  0
    0.7500    6.4952    0.0000 C   0  0  0  0  0  0  0  0  0  0  0  0
    1.5000    7.7942    0.0000 C   0  0  0  0  0  0  0  0  0  0  0  0
    1.5000    5.1962    0.0000 C   0  0  0  0  0  0  0  0  0  0  0  0
  1  2  1  0
  2  3  1  0
  2  4  1  0
  4  5  1  0
  5  6  2  0
  5  7  1  0
  7  8  1  0
  8  9  2  0
  8 10  2  0
  8 11  1  0
 11 12  2  0
 12 13  1  0
 13 14  2  0
 14 15  1  0
 15 16  2  0
 16 17  1  0
 17 18  1  0
 18 19  2  0
 19 20  1  0
 20 21  2  0
 21 22  1  0
 22 23  1  0
 22 24  2  0
 16 11  1  0
 24 18  1  0
M  END
$$$$
19573
     RDKit          2D

 32 35  0  0  0  0  0  0  0  0999 V2000
   -2.5981  -12.6073    0.0000 C   0  0  0  0  0  0  0  0  0  0  0  0
   -3.8971  -11.8573    0.0000 C   0  0  0  0  0  0  0  0  0  0  0  0
   -5.1962  -12.6073    0.0000 C   0  0  0  0  0  0  0  0  0  0  0  0
   -3.8971  -10.3573    0.0000 N   0  0  0  0  0  0  0  0  0  0  0  0
   -5.1962   -9.6073    0.0000 C   0  0  0  0  0  0  0  0  0  0  0  0
   -6.4952  -10.3573    0.0000 C   0  0  0  0  0  0  0  0  0  0  0  0
   -7.7942   -9.6073    0.0000 C   0  0  0  0  0  0  0  0  0  0  0  0
   -7.7942   -8.1073    0.0000 C   0  0  0  0  0  0  0  0  0  0  0  0
   -6.4952   -7.3573    0.0000 N   0  0  0  0  0  0  0  0  0  0  0  0
   -5.1962   -8.1073    0.0000 C   0  0  0  0  0  0  0  0  0  0  0  0
   -3.8971   -7.3573    0.0000 N   0  0  0  0  0  0  0  0  0  0  0  0
   -2.5981   -8.1073    0.0000 C   0  0  0  0  0  0  0  0  0  0  0  0
   -1.2990   -7.3573    0.0000 C   0  0  0  0  0  0  0  0  0  0  0  0
   -1.2990   -5.8573    0.0000 N   0  0  0  0  0  0  0  0  0  0  0  0
   -2.5981   -5.1073    0.0000 C   0  0  0  0  0  0  0  0  0  0  0  0
   -3.8971   -5.8573    0.0000 C   0  0  0  0  0  0  0  0  0  0  0  0
   -0.0000   -5.1073    0.0000 C   0  0  0  0  0  0  0  0  0  0  0  0
    1.2990   -5.8573    0.0000 O   0  0  0  0  0  0  0  0  0  0  0  0
   -0.0000   -3.6073    0.0000 C   0  0  0  0  0  0  0  0  0  0  0  0
    1.2135   -2.7256    0.0000 C   0  0  0  0  0  0  0  0  0  0  0  0
    0.7500   -1.2990    0.0000 C   0  0  0  0  0  0  0  0  0  0  0  0
    1.5000    0.0000    0.0000 C   0  0  0  0  0  0  0  0  0  0  0  0
    0.7500    1.2990    0.0000 C   0  0  0  0  0  0  0  0  0  0  0  0
    1.5000    2.5981    0.0000 N   0  0  0  0  0  0  0  0  0  0  0  0
    3.0000    2.5981    0.0000 S   0  0  0  0  0  0  0  0  0  0  0  0
    3.0000    1.0981    0.0000 O   0  0  0  0  0  0  0  0  0  0  0  0
    3.0000    4.0981    0.0000 O   0  0  0  0  0  0  0  0  0  0  0  0
    4.5000    2.5981    0.0000 C   0  0  0  0  0  0  0  0  0  0  0  0
   -0.7500    1.2990    0.0000 C   0  0  0  0  0  0  0  0  0  0  0  0
   -1.5000    0.0000    0.0000 C   0  0  0  0  0  0  0  0  0  0  0  0
   -0.7500   -1.2990    0.0000 C   0  0  0  0  0  0  0  0  0  0  0  0
   -1.2135   -2.7256    0.0000 N   0  0  0  0  0  0  0  0  0  0  0  0
  1  2  1  0
  2  3  1  0
  2  4  1  0
  4  5  1  0
  5  6  2  0
  6  7  1  0
  7  8  2  0
  8  9  1  0
  9 10  2  0
 10 11  1  0
 11 12  1  0
 12 13  1  0
 13 14  1  0
 14 15  1  0
 15 16  1  0
 14 17  1  0
 17 18  2  0
 17 19  1  0
 19 20  2  0
 20 21  1  0
 21 22  2  0
 22 23  1  0
 23 24  1  0
 24 25  1  0
 25 26  2  0
 25 27  2  0
 25 28  1  0
 23 29  2  0
 29 30  1  0
 30 31  2  0
 31 32  1  0
 10  5  1  0
 16 11  1  0
 32 19  1  0
 31 21  1  0
M  END
$$$$
85233
     RDKit          2D

 37 39  0  0  0  0  0  0  0  0999 V2000
   -2.5981  -12.6073    0.0000 C   0  0  0  0  0  0  0  0  0  0  0  0
   -3.8971  -11.8573    0.0000 C   0  0  0  0  0  0  0  0  0  0  0  0
   -5.1962  -12.6073    0.0000 C   0  0  0  0  0  0  0  0  0  0  0  0
   -3.8971  -10.3573    0.0000 N   0  0  0  0  0  0  0  0  0  0  0  0
   -5.1962   -9.6073    0.0000 C   0  0  0  0  0  0  0  0  0  0  0  0
   -6.4952  -10.3573    0.0000 C   0  0  0  0  0  0  0  0  0  0  0  0
   -7.7942   -9.6073    0.0000 C   0  0  0  0  0  0  0  0  0  0  0  0
   -7.7942   -8.1073    0.0000 C   0  0  0  0  0  0  0  0  0  0  0  0
   -6.4952   -7.3573    0.0000 N   0  0  0  0  0  0  0  0  0  0  0  0
   -5.1962   -8.1073    0.0000 C   0  0  0  0  0  0  0  0  0  0  0  0
   -3.8971   -7.3573    0.0000 N   0  0  0  0  0  0  0  0  0  0  0  0
   -2.5981   -8.1073    0.0000 C   0  0  0  0  0  0  0  0  0  0  0  0
   -1.2990   -7.3573    0.0000 C   0  0  0  0  0  0  0  0  0  0  0  0
   -1.2990   -5.8573    0.0000 N   0  0  0  0  0  0  0  0  0  0  0  0
   -2.5981   -5.1073    0.0000 C   0  0  0  0  0  0  0  0  0  0  0  0
   -3.8971   -5.8573    0.0000 C   0  0  0  0  0  0  0  0  0  0  0  0
   -0.0000   -5.1073    0.0000 C   0  0  0  0  0  0  0  0  0  0  0  0
    1.2990   -5.8573    0.0000 O   0  0  0  0  0  0  0  0  0  0  0  0
   -0.0000   -3.6073    0.0000 C   0  0  0  0  0  0  0  0  0  0  0  0
    1.2135   -2.7256    0.0000 C   0  0  0  0  0  0  0  0  0  0  0  0
    0.7500   -1.2990    0.0000 C   0  0  0  0  0  0  0  0  0  0  0  0
    1.5000    0.0000    0.0000 C   0  0  0  0  0  0  0  0  0  0  0  0
    0.7500    1.2990    0.0000 C   0  0  0  0  0  0  0  0  0  0  0  0
    1.5000    2.5981    0.0000 N   0  0  0  0  0  0  0  0  0  0  0  0
    3.0000    2.5981    0.0000 S   0  0  0  0  0  0  0  0  0  0  0  0
    3.0000    1.0981    0.0000 O   0  0  0  0  0  0  0  0  0  0  0  0
    3.0000    4.0981    0.0000 O   0  0  0  0  0  0  0  0  0  0  0  0
    4.5000    2.5981    0.0000 C   0  0  0  0  0  0  0  0  0  0  0  0
   -0.7500    1.2990    0.0000 C   0  0  0  0  0  0  0  0  0  0  0  0
   -1.5000    0.0000    0.0000 C   0  0  0  0  0  0  0  0  0  0  0  0
   -0.7500   -1.2990    0.0000 C   0  0  0  0  0  0  0  0  0  0  0  0
   -1.2135   -2.7256    0.0000 N   0  0  0  0  0  0  0  0  0  0  0  0
    5.5000    0.0000    0.0000 C   0  0  0  0  0  0  0  0  0  0  0  0
    6.7990    0.7500    0.0000 S   0  0  0  0  0  0  0  0  0  0  0  0
    7.5490   -0.5490    0.0000 O   0  0  0  0  0  0  0  0  0  0  0  0
    6.0490    2.0490    0.0000 O   0  0  0  0  0  0  0  0  0  0  0  0
    8.0981    1.5000    0.0000 O   0  0  0  0  0  0  0  0  0  0  0  0
  1  2  1  0
  2  3  1  0
  2  4  1  0
  4  5  1  0
  5  6  2  0
  6  7  1  0
  7  8  2  0
  8  9  1  0
  9 10  2  0
 10 11  1  0
 11 12  1  0
 12 13  1  0
 13 14  1  0
 14 15  1  0
 15 16  1  0
 14 17  1  0
 17 18  2  0
 17 19  1  0
 19 20  2  0
 20 21  1  0
 21 22  2  0
 22 23  1  0
 23 24  1  0
 24 25  1  0
 25 26  2  0
 25 27  2  0
 25 28  1  0
 23 29  2  0
 29 30  1  0
 30 31  2  0
 31 32  1  0
 33 34  1  0
 34 35  2  0
 34 36  2  0
 34 37  1  0
 10  5  1  0
 16 11  1  0
 32 19  1  0
 31 21  1  0
M  END
$$$$
44647
     RDKit          2D

 15 15  0  0  0  0  0  0  0  0999 V2000
    7.5000   -2.5981    0.0000 C   0  0  0  0  0  0  0  0  0  0  0  0
    6.0000   -2.5981    0.0000 C   0  0  0  0  0  0  0  0  0  0  0  0
    5.2500   -3.8971    0.0000 C   0  0  0  0  0  0  0  0  0  0  0  0
    5.2500   -1.2990    0.0000 N   0  0  0  0  0  0  0  0  0  0  0  0
    3.7500   -1.2990    0.0000 C   0  0  0  0  0  0  0  0  0  0  0  0
    3.0000    0.0000    0.0000 C   0  0  0  0  0  0  0  0  0  0  0  0
    3.7500    1.2990    0.0000 O   0  0  0  0  0  0  0  0  0  0  0  0
    1.5000    0.0000    0.0000 C   0  0  0  0  0  0  0  0  0  0  0  0
    0.7500   -1.2990    0.0000 C   0  0  0  0  0  0  0  0  0  0  0  0
   -0.7500   -1.2990    0.0000 C   0  0  0  0  0  0  0  0  0  0  0  0
   -1.5000   -2.5981    0.0000 O   0  0  0  0  0  0  0  0  0  0  0  0
   -1.5000    0.0000    0.0000 C   0  0  0  0  0  0  0  0  0  0  0  0
   -0.7500    1.2990    0.0000 C   0  0  0  0  0  0  0  0  0  0  0  0
   -1.5000    2.5981    0.0000 O   0  0  0  0  0  0  0  0  0  0  0  0
    0.7500    1.2990    0.0000 C   0  0  0  0  0  0  0  0  0  0  0  0
  1  2  1  0
  2  3  1  0
  2  4  1  0
  4  5  1  0
  5  6  1  0
  6  7  1  0
  6  8  1  0
  8  9  2  0
  9 10  1  0
 10 11  1  0
 10 12  2  0
 12 13  1  0
 13 14  1  0
 13 15  2  0
 15  8  1  0
M  END
$$$$
674763
     RDKit          2D

 20 19  0  0  0  0  0  0  0  0999 V2000
    7.5000   -2.5981    0.0000 C   0  0  0  0  0  0  0  0  0  0  0  0
    6.0000   -2.5981    0.0000 C   0  0  0  0  0  0  0  0  0  0  0  0
    5.2500   -3.8971    0.0000 C   0  0  0  0  0  0  0  0  0  0  0  0
    5.2500   -1.2990    0.0000 N   0  0  0  0  0  0  0  0  0  0  0  0
    3.7500   -1.2990    0.0000 C   0  0  0  0  0  0  0  0  0  0  0  0
    3.0000    0.0000    0.0000 C   0  0  0  0  0  0  0  0  0  0  0  0
    3.7500    1.2990    0.0000 O   0  0  0  0  0  0  0  0  0  0  0  0
    1.5000    0.0000    0.0000 C   0  0  0  0  0  0  0  0  0  0  0  0
    0.7500   -1.2990    0.0000 C   0  0  0  0  0  0  0  0  0  0  0  0
   -0.7500   -1.2990    0.0000 C   0  0  0  0  0  0  0  0  0  0  0  0
   -1.5000   -2.5981    0.0000 O   0  0  0  0  0  0  0  0  0  0  0  0
   -1.5000    0.0000    0.0000 C   0  0  0  0  0  0  0  0  0  0  0  0
   -0.7500    1.2990    0.0000 C   0  0  0  0  0  0  0  0  0  0  0  0
   -1.5000    2.5981    0.0000 O   0  0  0  0  0  0  0  0  0  0  0  0
    0.7500    1.2990    0.0000 C   0  0  0  0  0  0  0  0  0  0  0  0
    0.0000    4.1471    0.0000 O   0  0  0  0  0  0  0  0  0  0  0  0
    1.2990    4.8971    0.0000 S   0  0  0  0  0  0  0  0  0  0  0  0
    2.0490    3.5981    0.0000 O   0  0  0  0  0  0  0  0  0  0  0  0
    0.5490    6.1962    0.0000 O   0  0  0  0  0  0  0  0  0  0  0  0
    2.5981    5.6471    0.0000 O   0  0  0  0  0  0  0  0  0  0  0  0
  1  2  1  0
  2  3  1  0
  2  4  1  0
  4  5  1  0
  5  6  1  0
  6  7  1  0
  6  8  1  0
  8  9  2  0
  9 10  1  0
 10 11  1  0
 10 12  2  0
 12 13  1  0
 13 14  1  0
 13 15  2  0
 16 17  1  0
 17 18  2  0
 17 19  2  0
 17 20  1  0
 15  8  1  0
M  END
$$$$
5528
     RDKit          2D

 18 18  0  0  0  0  0  0  0  0999 V2000
    7.5000   -2.5981    0.0000 C   0  0  0  0  0  0  0  0  0  0  0  0
    6.0000   -2.5981    0.0000 C   0  0  0  0  0  0  0  0  0  0  0  0
    5.2500   -3.8971    0.0000 C   0  0  0  0  0  0  0  0  0  0  0  0
    5.2500   -1.2990    0.0000 N   0  0  0  0  0  0  0  0  0  0  0  0
    3.7500   -1.2990    0.0000 C   0  0  0  0  0  0  0  0  0  0  0  0
    3.0000    0.0000    0.0000 C   0  0  0  0  0  0  0  0  0  0  0  0
    3.7500    1.2990    0.0000 O   0  0  0  0  0  0  0  0  0  0  0  0
    1.5000    0.0000    0.0000 C   0  0  0  0  0  0  0  0  0  0  0  0
    0.7500   -1.2990    0.0000 C   0  0  0  0  0  0  0  0  0  0  0  0
   -0.7500   -1.2990    0.0000 C   0  0  0  0  0  0  0  0  0  0  0  0
   -1.5000    0.0000    0.0000 C   0  0  0  0  0  0  0  0  0  0  0  0
   -3.0000    0.0000    0.0000 N   0  0  0  0  0  0  0  0  0  0  0  0
   -3.7500    1.2990    0.0000 S   0  0  0  0  0  0  0  0  0  0  0  0
   -2.4510    2.0490    0.0000 O   0  0  0  0  0  0  0  0  0  0  0  0
   -5.0490    0.5490    0.0000 O   0  0  0  0  0  0  0  0  0  0  0  0
   -4.5000    2.5981    0.0000 C   0  0  0  0  0  0  0  0  0  0  0  0
   -0.7500    1.2990    0.0000 C   0  0  0  0  0  0  0  0  0  0  0  0
    0.7500    1.2990    0.0000 C   0  0  0  0  0  0  0  0  0  0  0  0
  1  2  1  0
  2  3  1  0
  2  4  1  0
  4  5  1  0
  5  6  1  0
  6  7  1  0
  6  8  1  0
  8  9  2  0
  9 10  1  0
 10 11  2  0
 11 12  1  0
 12 13  1  0
 13 14  2  0
 13 15  2  0
 13 16  1  0
 11 17  1  0
 17 18  2  0
 18  8  1  0
M  END
$$$$
1279
     RDKit          2D

 19 19  0  0  0  0  0  0  0  0999 V2000
    9.7500   -3.8971    0.0000 C   0  0  0  0  0  0  0  0  0  0  0  0
    8.2500   -3.8971    0.0000 C   0  0  0  0  0  0  0  0  0  0  0  0
    7.5000   -5.1962    0.0000 C   0  0  0  0  0  0  0  0  0  0  0  0
    7.5000   -2.5981    0.0000 N   0  0  0  0  0  0  0  0  0  0  0  0
    6.0000   -2.5981    0.0000 C   0  0  0  0  0  0  0  0  0  0  0  0
    5.2500   -1.2990    0.0000 C   0  0  0  0  0  0  0  0  0  0  0  0
    6.0000    0.0000    0.0000 O   0  0  0  0  0  0  0  0  0  0  0  0
    3.7500   -1.2990    0.0000 C   0  0  0  0  0  0  0  0  0  0  0  0
    3.0000    0.0000    0.0000 O   0  0  0  0  0  0  0  0  0  0  0  0
    1.5000    0.0000    0.0000 C   0  0  0  0  0  0  0  0  0  0  0  0
    0.7500   -1.2990    0.0000 C   0  0  0  0  0  0  0  0  0  0  0  0
   -0.7500   -1.2990    0.0000 C   0  0  0  0  0  0  0  0  0  0  0  0
   -1.5000    0.0000    0.0000 C   0  0  0  0  0  0  0  0  0  0  0  0
   -3.0000    0.0000    0.0000 C   0  0  0  0  0  0  0  0  0  0  0  0
   -3.7500    1.2990    0.0000 C   0  0  0  0  0  0  0  0  0  0  0  0
   -3.0000    2.5981    0.0000 O   0  0  0  0  0  0  0  0  0  0  0  0
   -5.2500    1.2990    0.0000 N   0  0  0  0  0  0  0  0  0  0  0  0
   -0.7500    1.2990    0.0000 C   0  0  0  0  0  0  0  0  0  0  0  0
    0.7500    1.2990    0.0000 C   0  0  0  0  0  0  0  0  0  0  0  0
  1  2  1  0
  2  3  1  0
  2  4  1  0
  4  5  1  0
  5  6  1  0
  6  7  1  0
  6  8  1  0
  8  9  1  0
  9 10  1  0
 10 11  2  0
 11 12  1  0
 12 13  2  0
 13 14  1  0
 14 15  1  0
 15 16  2  0
 15 17  1  0
 13 18  1  0
 18 19  2  0
 19 10  1  0
M  END
$$$$
1354
     RDKit          2D

 22 23  0  0  0  0  0  0  0  0999 V2000
    9.7500   -3.8971    0.0000 C   0  0  0  0  0  0  0  0  0  0  0  0
    8.2500   -3.8971    0.0000 C   0  0  0  0  0  0  0  0  0  0  0  0
    7.5000   -5.1962    0.0000 C   0  0  0  0  0  0  0  0  0  0  0  0
    7.5000   -2.5981    0.0000 N   0  0  0  0  0  0  0  0  0  0  0  0
    6.0000   -2.5981    0.0000 C   0  0  0  0  0  0  0  0  0  0  0  0
    5.2500   -1.2990    0.0000 C   0  0  0  0  0  0  0  0  0  0  0  0
    6.0000    0.0000    0.0000 O   0  0  0  0  0  0  0  0  0  0  0  0
    3.7500   -1.2990    0.0000 C   0  0  0  0  0  0  0  0  0  0  0  0
    3.0000    0.0000    0.0000 O   0  0  0  0  0  0  0  0  0  0  0  0
    1.5000    0.0000    0.0000 C   0  0  0  0  0  0  0  0  0  0  0  0
    0.7500   -1.2990    0.0000 C   0  0  0  0  0  0  0  0  0  0  0  0
   -0.7500   -1.2990    0.0000 C   0  0  0  0  0  0  0  0  0  0  0  0
   -1.5000    0.0000    0.0000 C   0  0  0  0  0  0  0  0  0  0  0  0
   -3.0000    0.0000    0.0000 C   0  0  0  0  0  0  0  0  0  0  0  0
   -3.7500    1.2990    0.0000 C   0  0  0  0  0  0  0  0  0  0  0  0
   -5.2500    1.2990    0.0000 O   0  0  0  0  0  0  0  0  0  0  0  0
   -6.0000    2.5981    0.0000 C   0  0  0  0  0  0  0  0  0  0  0  0
   -7.5000    2.5981    0.0000 C   0  0  0  0  0  0  0  0  0  0  0  0
   -8.7990    1.8481    0.0000 C   0  0  0  0  0  0  0  0  0  0  0  0
   -8.7990    3.3481    0.0000 C   0  0  0  0  0  0  0  0  0  0  0  0
   -0.7500    1.2990    0.0000 C   0  0  0  0  0  0  0  0  0  0  0  0
    0.7500    1.2990    0.0000 C   0  0  0  0  0  0  0  0  0  0  0  0
  1  2  1  0
  2  3  1  0
  2  4  1  0
  4  5  1  0
  5  6  1  0
  6  7  1  0
  6  8  1  0
  8  9  1  0
  9 10  1  0
 10 11  2  0
 11 12  1  0
 12 13  2  0
 13 14  1  0
 14 15  1  0
 15 16  1  0
 16 17  1  0
 17 18  1  0
 18 19  1  0
 19 20  1  0
 13 21  1  0
 21 22  2  0
 22 10  1  0
 20 18  1  0
M  END
$$$$
27417
     RDKit          2D

 23 23  0  0  0  0  0  0  0  0999 V2000
    9.7500   -3.8971    0.0000 C   0  0  0  0  0  0  0  0  0  0  0  0
    8.2500   -3.8971    0.0000 C   0  0  0  0  0  0  0  0  0  0  0  0
    7.5000   -5.1962    0.0000 C   0  0  0  0  0  0  0  0  0  0  0  0
    7.5000   -2.5981    0.0000 N   0  0  0  0  0  0  0  0  0  0  0  0
    6.0000   -2.5981    0.0000 C   0  0  0  0  0  0  0  0  0  0  0  0
    5.2500   -1.2990    0.0000 C   0  0  0  0  0  0  0  0  0  0  0  0
    6.0000    0.0000    0.0000 O   0  0  0  0  0  0  0  0  0  0  0  0
    3.7500   -1.2990    0.0000 C   0  0  0  0  0  0  0  0  0  0  0  0
    3.0000    0.0000    0.0000 O   0  0  0  0  0  0  0  0  0  0  0  0
    1.5000    0.0000    0.0000 C   0  0  0  0  0  0  0  0  0  0  0  0
    0.7500   -1.2990    0.0000 C   0  0  0  0  0  0  0  0  0  0  0  0
   -0.7500   -1.2990    0.0000 C   0  0  0  0  0  0  0  0  0  0  0  0
   -1.5000    0.0000    0.0000 C   0  0  0  0  0  0  0  0  0  0  0  0
   -3.0000    0.0000    0.0000 C   0  0  0  0  0  0  0  0  0  0  0  0
   -3.7500    1.2990    0.0000 O   0  0  0  0  0  0  0  0  0  0  0  0
   -5.2500    1.2990    0.0000 C   0  0  0  0  0  0  0  0  0  0  0  0
   -6.0000    2.5981    0.0000 C   0  0  0  0  0  0  0  0  0  0  0  0
   -7.5000    2.5981    0.0000 O   0  0  0  0  0  0  0  0  0  0  0  0
   -8.2500    3.8971    0.0000 C   0  0  0  0  0  0  0  0  0  0  0  0
   -9.7500    3.8971    0.0000 C   0  0  0  0  0  0  0  0  0  0  0  0
   -7.5000    5.1962    0.0000 C   0  0  0  0  0  0  0  0  0  0  0  0
   -0.7500    1.2990    0.0000 C   0  0  0  0  0  0  0  0  0  0  0  0
    0.7500    1.2990    0.0000 C   0  0  0  0  0  0  0  0  0  0  0  0
  1  2  1  0
  2  3  1  0
  2  4  1  0
  4  5  1  0
  5  6  1  0
  6  7  1  0
  6  8  1  0
  8  9  1  0
  9 10  1  0
 10 11  2  0
 11 12  1  0
 12 13  2  0
 13 14  1  0
 14 15  1  0
 15 16  1  0
 16 17  1  0
 17 18  1  0
 18 19  1  0
 19 20  1  0
 19 21  1  0
 13 22  1  0
 22 23  2  0
 23 10  1  0
M  END
$$$$
674659
     RDKit          2D

 31 30  0  0  0  0  0  0  0  0999 V2000
    9.7500   -3.8971    0.0000 C   0  0  0  0  0  0  0  0  0  0  0  0
    8.2500   -3.8971    0.0000 C   0  0  0  0  0  0  0  0  0  0  0  0
    7.5000   -5.1962    0.0000 C   0  0  0  0  0  0  0  0  0  0  0  0
    7.5000   -2.5981    0.0000 N   0  0  0  0  0  0  0  0  0  0  0  0
    6.0000   -2.5981    0.0000 C   0  0  0  0  0  0  0  0  0  0  0  0
    5.2500   -1.2990    0.0000 C   0  0  0  0  0  0  0  0  0  0  0  0
    6.0000    0.0000    0.0000 O   0  0  0  0  0  0  0  0  0  0  0  0
    3.7500   -1.2990    0.0000 C   0  0  0  0  0  0  0  0  0  0  0  0
    3.0000    0.0000    0.0000 O   0  0  0  0  0  0  0  0  0  0  0  0
    1.5000    0.0000    0.0000 C   0  0  0  0  0  0  0  0  0  0  0  0
    0.7500   -1.2990    0.0000 C   0  0  0  0  0  0  0  0  0  0  0  0
   -0.7500   -1.2990    0.0000 C   0  0  0  0  0  0  0  0  0  0  0  0
   -1.5000    0.0000    0.0000 C   0  0  0  0  0  0  0  0  0  0  0  0
   -3.0000    0.0000    0.0000 C   0  0  0  0  0  0  0  0  0  0  0  0
   -3.7500    1.2990    0.0000 O   0  0  0  0  0  0  0  0  0  0  0  0
   -5.2500    1.2990    0.0000 C   0  0  0  0  0  0  0  0  0  0  0  0
   -6.0000    2.5981    0.0000 C   0  0  0  0  0  0  0  0  0  0  0  0
   -7.5000    2.5981    0.0000 O   0  0  0  0  0  0  0  0  0  0  0  0
   -8.2500    3.8971    0.0000 C   0  0  0  0  0  0  0  0  0  0  0  0
   -9.7500    3.8971    0.0000 C   0  0  0  0  0  0  0  0  0  0  0  0
   -7.5000    5.1962    0.0000 C   0  0  0  0  0  0  0  0  0  0  0  0
   -0.7500    1.2990    0.0000 C   0  0  0  0  0  0  0  0  0  0  0  0
    0.7500    1.2990    0.0000 C   0  0  0  0  0  0  0  0  0  0  0  0
   -2.2500    7.4952    0.0000 O   0  0  0  0  0  0  0  0  0  0  0  0
   -0.7500    7.4952    0.0000 C   0  0  0  0  0  0  0  0  0  0  0  0
    0.0000    6.1962    0.0000 O   0  0  0  0  0  0  0  0  0  0  0  0
    0.0000    8.7942    0.0000 C   0  0  0  0  0  0  0  0  0  0  0  0
    1.5000    8.7942    0.0000 C   0  0  0  0  0  0  0  0  0  0  0  0
    2.2500   10.0933    0.0000 C   0  0  0  0  0  0  0  0  0  0  0  0
    1.5000   11.3923    0.0000 O   0  0  0  0  0  0  0  0  0  0  0  0
    3.7500   10.0933    0.0000 O   0  0  0  0  0  0  0  0  0  0  0  0
  1  2  1  0
  2  3  1  0
  2  4  1  0
  4  5  1  0
  5  6  1  0
  6  7  1  0
  6  8  1  0
  8  9  1  0
  9 10  1  0
 10 11  2  0
 11 12  1  0
 12 13  2  0
 13 14  1  0
 14 15  1  0
 15 16  1  0
 16 17  1  0
 17 18  1  0
 18 19  1  0
 19 20  1  0
 19 21  1  0
 13 22  1  0
 22 23  2  0
 24 25  1  0
 25 26  2  0
 25 27  1  0
 27 28  2  0
 28 29  1  0
 29 30  2  0
 29 31  1  0
 23 10  1  0
M  END
$$$$
1370
     RDKit          2D

 19 20  0  0  0  0  0  0  0  0999 V2000
   -9.7500   -6.4952    0.0000 C   0  0  0  0  0  0  0  0  0  0  0  0
   -8.2500   -6.4952    0.0000 C   0  0  0  0  0  0  0  0  0  0  0  0
   -7.5000   -7.7942    0.0000 C   0  0  0  0  0  0  0  0  0  0  0  0
   -7.5000   -5.1962    0.0000 N   0  0  0  0  0  0  0  0  0  0  0  0
   -6.0000   -5.1962    0.0000 C   0  0  0  0  0  0  0  0  0  0  0  0
   -5.2500   -3.8971    0.0000 C   0  0  0  0  0  0  0  0  0  0  0  0
   -6.0000   -2.5981    0.0000 O   0  0  0  0  0  0  0  0  0  0  0  0
   -3.7500   -3.8971    0.0000 C   0  0  0  0  0  0  0  0  0  0  0  0
   -3.0000   -2.5981    0.0000 O   0  0  0  0  0  0  0  0  0  0  0  0
   -1.5000   -2.5981    0.0000 C   0  0  0  0  0  0  0  0  0  0  0  0
   -0.7500   -3.8971    0.0000 C   0  0  0  0  0  0  0  0  0  0  0  0
    0.7500   -3.8971    0.0000 C   0  0  0  0  0  0  0  0  0  0  0  0
    1.5000   -2.5981    0.0000 C   0  0  0  0  0  0  0  0  0  0  0  0
    0.7500   -1.2990    0.0000 C   0  0  0  0  0  0  0  0  0  0  0  0
    1.5000    0.0000    0.0000 C   0  0  0  0  0  0  0  0  0  0  0  0
    0.7500    1.2990    0.0000 C   0  0  0  0  0  0  0  0  0  0  0  0
   -0.7500    1.2990    0.0000 C   0  0  0  0  0  0  0  0  0  0  0  0
   -1.5000    0.0000    0.0000 C   0  0  0  0  0  0  0  0  0  0  0  0
   -0.7500   -1.2990    0.0000 C   0  0  0  0  0  0  0  0  0  0  0  0
  1  2  1  0
  2  3  1  0
  2  4  1  0
  4  5  1  0
  5  6  1  0
  6  7  1  0
  6  8  1  0
  8  9  1  0
  9 10  1  0
 10 11  2  0
 11 12  1  0
 12 13  2  0
 13 14  1  0
 14 15  2  0
 15 16  1  0
 16 17  2  0
 17 18  1  0
 18 19  2  0
 19 10  1  0
 19 14  1  0
M  END
$$$$
8543
     RDKit          2D

 18 19  0  0  0  0  0  0  0  0999 V2000
  -11.1975    2.9107    0.0000 C   0  0  0  0  0  0  0  0  0  0  0  0
   -9.7709    3.3742    0.0000 C   0  0  0  0  0  0  0  0  0  0  0  0
   -9.4590    4.8414    0.0000 C   0  0  0  0  0  0  0  0  0  0  0  0
   -8.6562    2.3705    0.0000 N   0  0  0  0  0  0  0  0  0  0  0  0
   -7.2296    2.8340    0.0000 C   0  0  0  0  0  0  0  0  0  0  0  0
   -6.1149    1.8303    0.0000 C   0  0  0  0  0  0  0  0  0  0  0  0
   -6.4268    0.3631    0.0000 O   0  0  0  0  0  0  0  0  0  0  0  0
   -4.6883    2.2939    0.0000 C   0  0  0  0  0  0  0  0  0  0  0  0
   -3.5736    1.2902    0.0000 O   0  0  0  0  0  0  0  0  0  0  0  0
   -2.1470    1.7537    0.0000 C   0  0  0  0  0  0  0  0  0  0  0  0
   -1.8351    3.2209    0.0000 C   0  0  0  0  0  0  0  0  0  0  0  0
   -0.4086    3.6844    0.0000 C   0  0  0  0  0  0  0  0  0  0  0  0
    0.7062    2.6807    0.0000 C   0  0  0  0  0  0  0  0  0  0  0  0
    0.3943    1.2135    0.0000 C   0  0  0  0  0  0  0  0  0  0  0  0
    1.2760    0.0000    0.0000 N   0  0  0  0  0  0  0  0  0  0  0  0
    0.3943   -1.2135    0.0000 C   0  0  0  0  0  0  0  0  0  0  0  0
   -1.0323   -0.7500    0.0000 C   0  0  0  0  0  0  0  0  0  0  0  0
   -1.0323    0.7500    0.0000 C   0  0  0  0  0  0  0  0  0  0  0  0
  1  2  1  0
  2  3  1  0
  2  4  1  0
  4  5  1  0
  5  6  1  0
  6  7  1  0
  6  8  1  0
  8  9  1  0
  9 10  1  0
 10 11  2  0
 11 12  1  0
 12 13  2  0
 13 14  1  0
 14 15  1  0
 15 16  1  0
 16 17  2  0
 17 18  1  0
 18 10  1  0
 18 14  2  0
M  END
$$$$
13756
     RDKit          2D

 19 19  0  0  0  0  0  0  0  0999 V2000
    9.7500   -3.8971    0.0000 C   0  0  0  0  0  0  0  0  0  0  0  0
    8.2500   -3.8971    0.0000 C   0  0  0  0  0  0  0  0  0  0  0  0
    7.5000   -5.1962    0.0000 C   0  0  0  0  0  0  0  0  0  0  0  0
    7.5000   -2.5981    0.0000 N   0  0  0  0  0  0  0  0  0  0  0  0
    6.0000   -2.5981    0.0000 C   0  0  0  0  0  0  0  0  0  0  0  0
    5.2500   -1.2990    0.0000 C   0  0  0  0  0  0  0  0  0  0  0  0
    6.0000    0.0000    0.0000 O   0  0  0  0  0  0  0  0  0  0  0  0
    3.7500   -1.2990    0.0000 C   0  0  0  0  0  0  0  0  0  0  0  0
    3.0000    0.0000    0.0000 O   0  0  0  0  0  0  0  0  0  0  0  0
    1.5000    0.0000    0.0000 C   0  0  0  0  0  0  0  0  0  0  0  0
    0.7500   -1.2990    0.0000 C   0  0  0  0  0  0  0  0  0  0  0  0
   -0.7500   -1.2990    0.0000 C   0  0  0  0  0  0  0  0  0  0  0  0
   -1.5000    0.0000    0.0000 C   0  0  0  0  0  0  0  0  0  0  0  0
   -0.7500    1.2990    0.0000 C   0  0  0  0  0  0  0  0  0  0  0  0
    0.7500    1.2990    0.0000 C   0  0  0  0  0  0  0  0  0  0  0  0
    1.5000    2.5981    0.0000 O   0  0  0  0  0  0  0  0  0  0  0  0
    3.0000    2.5981    0.0000 C   0  0  0  0  0  0  0  0  0  0  0  0
    3.7500    3.8971    0.0000 C   0  0  0  0  0  0  0  0  0  0  0  0
    5.2500    3.8971    0.0000 C   0  0  0  0  0  0  0  0  0  0  0  0
  1  2  1  0
  2  3  1  0
  2  4  1  0
  4  5  1  0
  5  6  1  0
  6  7  1  0
  6  8  1  0
  8  9  1  0
  9 10  1  0
 10 11  2  0
 11 12  1  0
 12 13  2  0
 13 14  1  0
 14 15  2  0
 15 16  1  0
 16 17  1  0
 17 18  1  0
 18 19  2  0
 15 10  1  0
M  END
$$$$
63445
     RDKit          2D

 20 21  0  0  0  0  0  0  0  0999 V2000
    6.0000   -2.5981    0.0000 C   0  0  0  0  0  0  0  0  0  0  0  0
    5.2500   -1.2990    0.0000 C   0  0  0  0  0  0  0  0  0  0  0  0
    6.0000    0.0000    0.0000 C   0  0  0  0  0  0  0  0  0  0  0  0
    3.7500   -1.2990    0.0000 N   0  0  0  0  0  0  0  0  0  0  0  0
    3.0000    0.0000    0.0000 C   0  0  0  0  0  0  0  0  0  0  0  0
    1.5000    0.0000    0.0000 C   0  0  0  0  0  0  0  0  0  0  0  0
    0.7500   -1.2990    0.0000 C   0  0  0  0  0  0  0  0  0  0  0  0
   -0.7500   -1.2990    0.0000 C   0  0  0  0  0  0  0  0  0  0  0  0
   -1.5000    0.0000    0.0000 C   0  0  0  0  0  0  0  0  0  0  0  0
   -3.0000    0.0000    0.0000 C   0  0  0  0  0  0  0  0  0  0  0  0
   -3.7500    1.2990    0.0000 C   0  0  0  0  0  0  0  0  0  0  0  0
   -5.2500    1.2990    0.0000 C   0  0  0  0  0  0  0  0  0  0  0  0
   -6.0000    2.5981    0.0000 O   0  0  0  0  0  0  0  0  0  0  0  0
   -3.0000    2.5981    0.0000 C   0  0  0  0  0  0  0  0  0  0  0  0
   -1.5000    2.5981    0.0000 C   0  0  0  0  0  0  0  0  0  0  0  0
   -0.7500    1.2990    0.0000 C   0  0  0  0  0  0  0  0  0  0  0  0
    0.7500    1.2990    0.0000 N   0  0  0  0  0  0  0  0  0  0  0  0
   -3.7500    3.8971    0.0000 N   0  0  0  0  0  4  0  0  0  0  0  0
   -5.2500    3.8971    0.0000 O   0  0  0  0  0  0  0  0  0  0  0  0
   -3.0000    5.1962    0.0000 O   0  0  0  0  0  1  0  0  0  0  0  0
  1  2  1  0
  2  3  1  0
  2  4  1  0
  4  5  1  0
  5  6  1  0
  6  7  1  0
  7  8  1  0
  8  9  1  0
  9 10  2  0
 10 11  1  0
 11 12  1  0
 12 13  1  0
 11 14  2  0
 14 15  1  0
 15 16  2  0
 16 17  1  0
 14 18  1  0
 18 19  2  0
 18 20  1  0
 17  6  1  0
 16  9  1  0
M  CHG  2  18   1  20  -1
M  END
$$$$
675193
     RDKit          2D

 23 25  0  0  0  0  0  0  0  0999 V2000
    8.9651   -3.5403    0.0000 C   0  0  0  0  0  0  0  0  0  0  0  0
    7.7515   -2.6587    0.0000 C   0  0  0  0  0  0  0  0  0  0  0  0
    7.9083   -1.1669    0.0000 C   0  0  0  0  0  0  0  0  0  0  0  0
    6.3812   -3.2688    0.0000 N   0  0  0  0  0  0  0  0  0  0  0  0
    5.1677   -2.3871    0.0000 C   0  0  0  0  0  0  0  0  0  0  0  0
    3.7974   -2.9972    0.0000 C   0  0  0  0  0  0  0  0  0  0  0  0
    2.5838   -2.1155    0.0000 C   0  0  0  0  0  0  0  0  0  0  0  0
    1.2135   -2.7256    0.0000 C   0  0  0  0  0  0  0  0  0  0  0  0
    1.9635   -4.0247    0.0000 C   0  0  0  0  0  0  0  0  0  0  0  0
    1.2135   -5.3237    0.0000 O   0  0  0  0  0  0  0  0  0  0  0  0
    3.4635   -4.0247    0.0000 N   0  0  0  0  0  0  0  0  0  0  0  0
    0.7500   -1.2990    0.0000 C   0  0  0  0  0  0  0  0  0  0  0  0
    1.5000    0.0000    0.0000 C   0  0  0  0  0  0  0  0  0  0  0  0
    0.7500    1.2990    0.0000 C   0  0  0  0  0  0  0  0  0  0  0  0
   -0.7500    1.2990    0.0000 C   0  0  0  0  0  0  0  0  0  0  0  0
   -1.5000    0.0000    0.0000 C   0  0  0  0  0  0  0  0  0  0  0  0
   -0.7500   -1.2990    0.0000 C   0  0  0  0  0  0  0  0  0  0  0  0
   -1.2135   -2.7256    0.0000 C   0  0  0  0  0  0  0  0  0  0  0  0
   -2.5838   -3.3357    0.0000 C   0  0  0  0  0  0  0  0  0  0  0  0
   -2.7406   -4.8275    0.0000 C   0  0  0  0  0  0  0  0  0  0  0  0
   -1.5271   -5.7092    0.0000 C   0  0  0  0  0  0  0  0  0  0  0  0
   -0.1568   -5.0991    0.0000 C   0  0  0  0  0  0  0  0  0  0  0  0
   -0.0000   -3.6073    0.0000 C   0  0  0  0  0  0  0  0  0  0  0  0
  1  2  1  0
  2  3  1  0
  2  4  1  0
  4  5  1  0
  5  6  1  0
  6  7  1  0
  7  8  1  0
  8  9  1  0
  9 10  2  0
  9 11  1  0
  8 12  1  0
 12 13  2  0
 13 14  1  0
 14 15  2  0
 15 16  1  0
 16 17  2  0
 17 18  1  0
 18 19  2  0
 19 20  1  0
 20 21  2  0
 21 22  1  0
 22 23  2  0
 23  8  1  0
 17 12  1  0
 23 18  1  0
M  END
$$$$
28331
     RDKit          2D

 25 26  0  0  0  0  0  0  0  0999 V2000
    3.7500   -6.4952    0.0000 C   0  0  0  0  0  0  0  0  0  0  0  0
    4.5000   -5.1962    0.0000 C   0  0  0  0  0  0  0  0  0  0  0  0
    6.0000   -5.1962    0.0000 C   0  0  0  0  0  0  0  0  0  0  0  0
    3.7500   -3.8971    0.0000 O   0  0  0  0  0  0  0  0  0  0  0  0
    4.5000   -2.5981    0.0000 C   0  0  0  0  0  0  0  0  0  0  0  0
    6.0000   -2.5981    0.0000 O   0  0  0  0  0  0  0  0  0  0  0  0
    3.7500   -1.2990    0.0000 C   0  0  0  0  0  0  0  0  0  0  0  0
    5.0490   -0.5490    0.0000 C   0  0  0  0  0  0  0  0  0  0  0  0
    2.4510   -2.0490    0.0000 C   0  0  0  0  0  0  0  0  0  0  0  0
    3.0000    0.0000    0.0000 O   0  0  0  0  0  0  0  0  0  0  0  0
    1.5000    0.0000    0.0000 C   0  0  0  0  0  0  0  0  0  0  0  0
    0.7500   -1.2990    0.0000 C   0  0  0  0  0  0  0  0  0  0  0  0
   -0.7500   -1.2990    0.0000 C   0  0  0  0  0  0  0  0  0  0  0  0
   -1.5000    0.0000    0.0000 C   0  0  0  0  0  0  0  0  0  0  0  0
   -0.7500    1.2990    0.0000 C   0  0  0  0  0  0  0  0  0  0  0  0
    0.7500    1.2990    0.0000 C   0  0  0  0  0  0  0  0  0  0  0  0
   -3.0000    0.0000    0.0000 C   0  0  0  0  0  0  0  0  0  0  0  0
   -3.7500   -1.2990    0.0000 O   0  0  0  0  0  0  0  0  0  0  0  0
   -3.7500    1.2990    0.0000 C   0  0  0  0  0  0  0  0  0  0  0  0
   -3.0000    2.5981    0.0000 C   0  0  0  0  0  0  0  0  0  0  0  0
   -3.7500    3.8971    0.0000 C   0  0  0  0  0  0  0  0  0  0  0  0
   -5.2500    3.8971    0.0000 C   0  0  0  0  0  0  0  0  0  0  0  0
   -6.0000    5.1962    0.0000 Cl  0  0  0  0  0  0  0  0  0  0  0  0
   -6.0000    2.5981    0.0000 C   0  0  0  0  0  0  0  0  0  0  0  0
   -5.2500    1.2990    0.0000 C   0  0  0  0  0  0  0  0  0  0  0  0
  1  2  1  0
  2  3  1  0
  2  4  1  0
  4  5  1  0
  5  6  2  0
  5  7  1  0
  7  8  1  0
  7  9  1  0
  7 10  1  0
 10 11  1  0
 11 12  2  0
 12 13  1  0
 13 14  2  0
 14 15  1  0
 15 16  2  0
 14 17  1  0
 17 18  2  0
 17 19  1  0
 19 20  2  0
 20 21  1  0
 21 22  2  0
 22 23  1  0
 22 24  1  0
 24 25  2  0
 16 11  1  0
 25 19  1  0
M  END
$$$$
430522
     RDKit          2D

 35 36  0  0  0  0  0  0  0  0999 V2000
   -3.6586  -16.8696    0.0000 C   0  0  0  0  0  0  0  0  0  0  0  0
   -2.6549  -15.7549    0.0000 C   0  0  0  0  0  0  0  0  0  0  0  0
   -1.1877  -16.0668    0.0000 C   0  0  0  0  0  0  0  0  0  0  0  0
   -3.1184  -14.3283    0.0000 O   0  0  0  0  0  0  0  0  0  0  0  0
   -2.1148  -13.2136    0.0000 C   0  0  0  0  0  0  0  0  0  0  0  0
   -0.6475  -13.5255    0.0000 O   0  0  0  0  0  0  0  0  0  0  0  0
   -2.5783  -11.7870    0.0000 O   0  0  0  0  0  0  0  0  0  0  0  0
   -1.5746  -10.6723    0.0000 C   0  0  0  0  0  0  0  0  0  0  0  0
   -2.0381   -9.2457    0.0000 O   0  0  0  0  0  0  0  0  0  0  0  0
   -1.0344   -8.1310    0.0000 P   0  0  0  0  0  0  0  0  0  0  0  0
    0.0803   -9.1347    0.0000 O   0  0  0  0  0  0  0  0  0  0  0  0
   -2.1491   -7.1273    0.0000 C   0  0  0  0  0  0  0  0  0  0  0  0
   -1.8373   -5.6601    0.0000 O   0  0  0  0  0  0  0  0  0  0  0  0
   -2.9520   -4.6564    0.0000 C   0  0  0  0  0  0  0  0  0  0  0  0
   -4.3786   -5.1199    0.0000 C   0  0  0  0  0  0  0  0  0  0  0  0
   -2.6401   -3.1891    0.0000 C   0  0  0  0  0  0  0  0  0  0  0  0
   -1.2135   -2.7256    0.0000 N   0  0  0  0  0  0  0  0  0  0  0  0
   -0.0000   -3.6073    0.0000 C   0  0  0  0  0  0  0  0  0  0  0  0
    1.2135   -2.7256    0.0000 N   0  0  0  0  0  0  0  0  0  0  0  0
    0.7500   -1.2990    0.0000 C   0  0  0  0  0  0  0  0  0  0  0  0
    1.5000    0.0000    0.0000 C   0  0  0  0  0  0  0  0  0  0  0  0
    3.0000    0.0000    0.0000 N   0  0  0  0  0  0  0  0  0  0  0  0
    0.7500    1.2990    0.0000 N   0  0  0  0  0  0  0  0  0  0  0  0
   -0.7500    1.2990    0.0000 C   0  0  0  0  0  0  0  0  0  0  0  0
   -1.5000    0.0000    0.0000 N   0  0  0  0  0  0  0  0  0  0  0  0
   -0.7500   -1.2990    0.0000 C   0  0  0  0  0  0  0  0  0  0  0  0
   -0.0307   -7.0163    0.0000 O   0  0  0  0  0  0  0  0  0  0  0  0
    1.4365   -7.3281    0.0000 C   0  0  0  0  0  0  0  0  0  0  0  0
    2.4402   -6.2134    0.0000 O   0  0  0  0  0  0  0  0  0  0  0  0
    3.9074   -6.5253    0.0000 C   0  0  0  0  0  0  0  0  0  0  0  0
    4.3709   -7.9519    0.0000 O   0  0  0  0  0  0  0  0  0  0  0  0
    4.9111   -5.4106    0.0000 O   0  0  0  0  0  0  0  0  0  0  0  0
    6.3783   -5.7224    0.0000 C   0  0  0  0  0  0  0  0  0  0  0  0
    7.3820   -4.6077    0.0000 C   0  0  0  0  0  0  0  0  0  0  0  0
    6.8419   -7.1490    0.0000 C   0  0  0  0  0  0  0  0  0  0  0  0
  1  2  1  0
  2  3  1  0
  2  4  1  0
  4  5  1  0
  5  6  2  0
  5  7  1  0
  7  8  1  0
  8  9  1  0
  9 10  1  0
 10 11  2  0
 10 12  1  0
 12 13  1  0
 13 14  1  0
 14 15  1  6
 14 16  1  0
 16 17  1  0
 17 18  1  0
 18 19  2  0
 19 20  1  0
 20 21  2  0
 21 22  1  0
 21 23  1  0
 23 24  2  0
 24 25  1  0
 25 26  2  0
 10 27  1  0
 27 28  1  0
 28 29  1  0
 29 30  1  0
 30 31  2  0
 30 32  1  0
 32 33  1  0
 33 34  1  0
 33 35  1  0
 26 17  1  0
 26 20  1  0
M  END
$$$$
417163
     RDKit          2D

 43 43  0  0  0  0  0  0  0  0999 V2000
   -3.6586  -16.8696    0.0000 C   0  0  0  0  0  0  0  0  0  0  0  0
   -2.6549  -15.7549    0.0000 C   0  0  0  0  0  0  0  0  0  0  0  0
   -1.1877  -16.0668    0.0000 C   0  0  0  0  0  0  0  0  0  0  0  0
   -3.1184  -14.3283    0.0000 O   0  0  0  0  0  0  0  0  0  0  0  0
   -2.1148  -13.2136    0.0000 C   0  0  0  0  0  0  0  0  0  0  0  0
   -0.6475  -13.5255    0.0000 O   0  0  0  0  0  0  0  0  0  0  0  0
   -2.5783  -11.7870    0.0000 O   0  0  0  0  0  0  0  0  0  0  0  0
   -1.5746  -10.6723    0.0000 C   0  0  0  0  0  0  0  0  0  0  0  0
   -2.0381   -9.2457    0.0000 O   0  0  0  0  0  0  0  0  0  0  0  0
   -1.0344   -8.1310    0.0000 P   0  0  0  0  0  0  0  0  0  0  0  0
    0.0803   -9.1347    0.0000 O   0  0  0  0  0  0  0  0  0  0  0  0
   -2.1491   -7.1273    0.0000 C   0  0  0  0  0  0  0  0  0  0  0  0
   -1.8373   -5.6601    0.0000 O   0  0  0  0  0  0  0  0  0  0  0  0
   -2.9520   -4.6564    0.0000 C   0  0  0  0  0  0  0  0  0  0  0  0
   -4.3786   -5.1199    0.0000 C   0  0  0  0  0  0  0  0  0  0  0  0
   -2.6401   -3.1891    0.0000 C   0  0  0  0  0  0  0  0  0  0  0  0
   -1.2135   -2.7256    0.0000 N   0  0  0  0  0  0  0  0  0  0  0  0
   -0.0000   -3.6073    0.0000 C   0  0  0  0  0  0  0  0  0  0  0  0
    1.2135   -2.7256    0.0000 N   0  0  0  0  0  0  0  0  0  0  0  0
    0.7500   -1.2990    0.0000 C   0  0  0  0  0  0  0  0  0  0  0  0
    1.5000    0.0000    0.0000 C   0  0  0  0  0  0  0  0  0  0  0  0
    3.0000    0.0000    0.0000 N   0  0  0  0  0  0  0  0  0  0  0  0
    0.7500    1.2990    0.0000 N   0  0  0  0  0  0  0  0  0  0  0  0
   -0.7500    1.2990    0.0000 C   0  0  0  0  0  0  0  0  0  0  0  0
   -1.5000    0.0000    0.0000 N   0  0  0  0  0  0  0  0  0  0  0  0
   -0.7500   -1.2990    0.0000 C   0  0  0  0  0  0  0  0  0  0  0  0
   -0.0307   -7.0163    0.0000 O   0  0  0  0  0  0  0  0  0  0  0  0
    1.4365   -7.3281    0.0000 C   0  0  0  0  0  0  0  0  0  0  0  0
    2.4402   -6.2134    0.0000 O   0  0  0  0  0  0  0  0  0  0  0  0
    3.9074   -6.5253    0.0000 C   0  0  0  0  0  0  0  0  0  0  0  0
    4.3709   -7.9519    0.0000 O   0  0  0  0  0  0  0  0  0  0  0  0
    4.9111   -5.4106    0.0000 O   0  0  0  0  0  0  0  0  0  0  0  0
    6.3783   -5.7224    0.0000 C   0  0  0  0  0  0  0  0  0  0  0  0
    7.3820   -4.6077    0.0000 C   0  0  0  0  0  0  0  0  0  0  0  0
    6.8419   -7.1490    0.0000 C   0  0  0  0  0  0  0  0  0  0  0  0
    8.3820   -1.2990    0.0000 O   0  0  0  0  0  0  0  0  0  0  0  0
    9.8820   -1.2990    0.0000 C   0  0  0  0  0  0  0  0  0  0  0  0
   10.6320   -2.5981    0.0000 O   0  0  0  0  0  0  0  0  0  0  0  0
   10.6320    0.0000    0.0000 C   0  0  0  0  0  0  0  0  0  0  0  0
   12.1320    0.0000    0.0000 C   0  0  0  0  0  0  0  0  0  0  0  0
   12.8820    1.2990    0.0000 C   0  0  0  0  0  0  0  0  0  0  0  0
   12.1320    2.5981    0.0000 O   0  0  0  0  0  0  0  0  0  0  0  0
   14.3820    1.2990    0.0000 O   0  0  0  0  0  0  0  0  0  0  0  0
  1  2  1  0
  2  3  1  0
  2  4  1  0
  4  5  1  0
  5  6  2  0
  5  7  1  0
  7  8  1  0
  8  9  1  0
  9 10  1  0
 10 11  2  0
 10 12  1  0
 12 13  1  0
 13 14  1  0
 14 15  1  6
 14 16  1  0
 16 17  1  0
 17 18  1  0
 18 19  2  0
 19 20  1  0
 20 21  2  0
 21 22  1  0
 21 23  1  0
 23 24  2  0
 24 25  1  0
 25 26  2  0
 10 27  1  0
 27 28  1  0
 28 29  1  0
 29 30  1  0
 30 31  2  0
 30 32  1  0
 32 33  1  0
 33 34  1  0
 33 35  1  0
 36 37  1  0
 37 38  2  0
 37 39  1  0
 39 40  2  0
 40 41  1  0
 41 42  2  0
 41 43  1  0
 26 17  1  0
 26 20  1  0
M  END
$$$$
1380095
     RDKit          2D

 33 35  0  0  0  0  0  0  0  0999 V2000
   -5.3142   -9.5216    0.0000 C   0  0  0  0  0  0  0  0  0  0  0  0
   -4.1994  -10.5253    0.0000 C   0  0  0  0  0  0  0  0  0  0  0  0
   -4.5113  -11.9925    0.0000 C   0  0  0  0  0  0  0  0  0  0  0  0
   -2.7729  -10.0617    0.0000 O   0  0  0  0  0  0  0  0  0  0  0  0
   -1.6581  -11.0654    0.0000 C   0  0  0  0  0  0  0  0  0  0  0  0
   -1.9700  -12.5326    0.0000 O   0  0  0  0  0  0  0  0  0  0  0  0
   -0.2316  -10.6019    0.0000 C   0  0  0  0  0  0  0  0  0  0  0  0
    0.8832  -11.6056    0.0000 C   0  0  0  0  0  0  0  0  0  0  0  0
    0.0803   -9.1347    0.0000 N   0  0  0  0  0  0  0  0  0  0  0  0
   -1.0344   -8.1310    0.0000 P   0  0  0  0  0  5  0  0  0  0  0  0
   -2.0381   -9.2457    0.0000 O   0  0  0  0  0  0  0  0  0  0  0  0
   -2.1491   -7.1273    0.0000 C   0  0  0  0  0  0  0  0  0  0  0  0
   -1.8373   -5.6601    0.0000 O   0  0  0  0  0  0  0  0  0  0  0  0
   -2.9520   -4.6564    0.0000 C   0  0  0  0  0  0  0  0  0  0  0  0
   -4.3786   -5.1199    0.0000 C   0  0  0  0  0  0  0  0  0  0  0  0
   -2.6401   -3.1891    0.0000 C   0  0  0  0  0  0  0  0  0  0  0  0
   -3.7548   -2.1855    0.0000 N   0  0  0  0  0  0  0  0  0  0  0  0
   -5.2220   -2.4973    0.0000 C   0  0  0  0  0  0  0  0  0  0  0  0
   -5.9720   -1.1983    0.0000 N   0  0  0  0  0  0  0  0  0  0  0  0
   -4.9684   -0.0836    0.0000 C   0  0  0  0  0  0  0  0  0  0  0  0
   -5.1251    1.4082    0.0000 C   0  0  0  0  0  0  0  0  0  0  0  0
   -6.4955    2.0183    0.0000 N   0  0  0  0  0  0  0  0  0  0  0  0
   -3.9116    2.2899    0.0000 N   0  0  0  0  0  0  0  0  0  0  0  0
   -2.5413    1.6798    0.0000 C   0  0  0  0  0  0  0  0  0  0  0  0
   -2.3845    0.1880    0.0000 N   0  0  0  0  0  0  0  0  0  0  0  0
   -3.5980   -0.6937    0.0000 C   0  0  0  0  0  0  0  0  0  0  0  0
   -0.0307   -7.0163    0.0000 O   0  0  0  0  0  0  0  0  0  0  0  0
    1.4365   -7.3281    0.0000 C   0  0  0  0  0  0  0  0  0  0  0  0
    1.9000   -8.7547    0.0000 C   0  0  0  0  0  0  0  0  0  0  0  0
    3.3673   -9.0666    0.0000 C   0  0  0  0  0  0  0  0  0  0  0  0
    4.3709   -7.9519    0.0000 C   0  0  0  0  0  0  0  0  0  0  0  0
    3.9074   -6.5253    0.0000 C   0  0  0  0  0  0  0  0  0  0  0  0
    2.4402   -6.2134    0.0000 C   0  0  0  0  0  0  0  0  0  0  0  0
  1  2  1  0
  2  3  1  0
  2  4  1  0
  4  5  1  0
  5  6  2  0
  5  7  1  0
  7  8  1  1
  7  9  1  0
  9 10  1  0
 10 11  2  0
 10 12  1  6
 12 13  1  0
 13 14  1  0
 14 15  1  6
 14 16  1  0
 16 17  1  0
 17 18  1  0
 18 19  2  0
 19 20  1  0
 20 21  2  0
 21 22  1  0
 21 23  1  0
 23 24  2  0
 24 25  1  0
 25 26  2  0
 10 27  1  0
 27 28  1  0
 28 29  2  0
 29 30  1  0
 30 31  2  0
 31 32  1  0
 32 33  2  0
 26 17  1  0
 26 20  1  0
 33 28  1  0
M  END
$$$$
1540509
     RDKit          2D

 74 77  0  0  0  0  0  0  0  0999 V2000
   -5.3142   -9.5216    0.0000 C   0  0  0  0  0  0  0  0  0  0  0  0
   -4.1994  -10.5253    0.0000 C   0  0  0  0  0  0  0  0  0  0  0  0
   -4.5113  -11.9925    0.0000 C   0  0  0  0  0  0  0  0  0  0  0  0
   -2.7729  -10.0617    0.0000 O   0  0  0  0  0  0  0  0  0  0  0  0
   -1.6581  -11.0654    0.0000 C   0  0  0  0  0  0  0  0  0  0  0  0
   -1.9700  -12.5326    0.0000 O   0  0  0  0  0  0  0  0  0  0  0  0
   -0.2316  -10.6019    0.0000 C   0  0  0  0  0  0  0  0  0  0  0  0
    0.8832  -11.6056    0.0000 C   0  0  0  0  0  0  0  0  0  0  0  0
    0.0803   -9.1347    0.0000 N   0  0  0  0  0  0  0  0  0  0  0  0
   -1.0344   -8.1310    0.0000 P   0  0  0  0  0  5  0  0  0  0  0  0
   -2.0381   -9.2457    0.0000 O   0  0  0  0  0  0  0  0  0  0  0  0
   -2.1491   -7.1273    0.0000 C   0  0  0  0  0  0  0  0  0  0  0  0
   -1.8373   -5.6601    0.0000 O   0  0  0  0  0  0  0  0  0  0  0  0
   -2.9520   -4.6564    0.0000 C   0  0  0  0  0  0  0  0  0  0  0  0
   -4.3786   -5.1199    0.0000 C   0  0  0  0  0  0  0  0  0  0  0  0
   -2.6401   -3.1891    0.0000 C   0  0  0  0  0  0  0  0  0  0  0  0
   -3.7548   -2.1855    0.0000 N   0  0  0  0  0  0  0  0  0  0  0  0
   -5.2220   -2.4973    0.0000 C   0  0  0  0  0  0  0  0  0  0  0  0
   -5.9720   -1.1983    0.0000 N   0  0  0  0  0  0  0  0  0  0  0  0
   -4.9684   -0.0836    0.0000 C   0  0  0  0  0  0  0  0  0  0  0  0
   -5.1251    1.4082    0.0000 C   0  0  0  0  0  0  0  0  0  0  0  0
   -6.4955    2.0183    0.0000 N   0  0  0  0  0  0  0  0  0  0  0  0
   -3.9116    2.2899    0.0000 N   0  0  0  0  0  0  0  0  0  0  0  0
   -2.5413    1.6798    0.0000 C   0  0  0  0  0  0  0  0  0  0  0  0
   -2.3845    0.1880    0.0000 N   0  0  0  0  0  0  0  0  0  0  0  0
   -3.5980   -0.6937    0.0000 C   0  0  0  0  0  0  0  0  0  0  0  0
   -0.0307   -7.0163    0.0000 O   0  0  0  0  0  0  0  0  0  0  0  0
    1.4365   -7.3281    0.0000 C   0  0  0  0  0  0  0  0  0  0  0  0
    1.9000   -8.7547    0.0000 C   0  0  0  0  0  0  0  0  0  0  0  0
    3.3673   -9.0666    0.0000 C   0  0  0  0  0  0  0  0  0  0  0  0
    4.3709   -7.9519    0.0000 C   0  0  0  0  0  0  0  0  0  0  0  0
    3.9074   -6.5253    0.0000 C   0  0  0  0  0  0  0  0  0  0  0  0
    2.4402   -6.2134    0.0000 C   0  0  0  0  0  0  0  0  0  0  0  0
    6.5522   -9.5216    0.0000 C   0  0  0  0  0  0  0  0  0  0  0  0
    7.6670  -10.5253    0.0000 C   0  0  0  0  0  0  0  0  0  0  0  0
    7.3551  -11.9925    0.0000 C   0  0  0  0  0  0  0  0  0  0  0  0
    9.0935  -10.0617    0.0000 O   0  0  0  0  0  0  0  0  0  0  0  0
   10.2083  -11.0654    0.0000 C   0  0  0  0  0  0  0  0  0  0  0  0
    9.8964  -12.5326    0.0000 O   0  0  0  0  0  0  0  0  0  0  0  0
   11.6349  -10.6019    0.0000 C   0  0  0  0  0  0  0  0  0  0  0  0
   12.7496  -11.6056    0.0000 C   0  0  0  0  0  0  0  0  0  0  0  0
   11.9467   -9.1347    0.0000 N   0  0  0  0  0  0  0  0  0  0  0  0
   10.8320   -8.1310    0.0000 P   0  0  0  0  0  5  0  0  0  0  0  0
    9.8283   -9.2457    0.0000 O   0  0  0  0  0  0  0  0  0  0  0  0
    9.7173   -7.1273    0.0000 C   0  0  0  0  0  0  0  0  0  0  0  0
   10.0292   -5.6601    0.0000 O   0  0  0  0  0  0  0  0  0  0  0  0
    8.9144   -4.6564    0.0000 C   0  0  0  0  0  0  0  0  0  0  0  0
    7.4879   -5.1199    0.0000 C   0  0  0  0  0  0  0  0  0  0  0  0
    9.2263   -3.1891    0.0000 C   0  0  0  0  0  0  0  0  0  0  0  0
    8.1116   -2.1855    0.0000 N   0  0  0  0  0  0  0  0  0  0  0  0
    6.6444   -2.4973    0.0000 C   0  0  0  0  0  0  0  0  0  0  0  0
    5.8944   -1.1983    0.0000 N   0  0  0  0  0  0  0  0  0  0  0  0
    6.8981   -0.0836    0.0000 C   0  0  0  0  0  0  0  0  0  0  0  0
    6.7413    1.4082    0.0000 C   0  0  0  0  0  0  0  0  0  0  0  0
    5.3709    2.0183    0.0000 N   0  0  0  0  0  0  0  0  0  0  0  0
    7.9548    2.2899    0.0000 N   0  0  0  0  0  0  0  0  0  0  0  0
    9.3251    1.6798    0.0000 C   0  0  0  0  0  0  0  0  0  0  0  0
    9.4819    0.1880    0.0000 N   0  0  0  0  0  0  0  0  0  0  0  0
    8.2684   -0.6937    0.0000 C   0  0  0  0  0  0  0  0  0  0  0  0
   11.8357   -7.0163    0.0000 O   0  0  0  0  0  0  0  0  0  0  0  0
   13.3029   -7.3281    0.0000 C   0  0  0  0  0  0  0  0  0  0  0  0
   13.7664   -8.7547    0.0000 C   0  0  0  0  0  0  0  0  0  0  0  0
   15.2337   -9.0666    0.0000 C   0  0  0  0  0  0  0  0  0  0  0  0
   16.2374   -7.9519    0.0000 C   0  0  0  0  0  0  0  0  0  0  0  0
   15.7738   -6.5253    0.0000 C   0  0  0  0  0  0  0  0  0  0  0  0
   14.3066   -6.2134    0.0000 C   0  0  0  0  0  0  0  0  0  0  0  0
   -2.2500    4.5889    0.0000 O   0  0  0  0  0  0  0  0  0  0  0  0
   -0.7500    4.5889    0.0000 C   0  0  0  0  0  0  0  0  0  0  0  0
    0.0000    3.2899    0.0000 O   0  0  0  0  0  0  0  0  0  0  0  0
    0.0000    5.8880    0.0000 C   0  0  0  0  0  0  0  0  0  0  0  0
    1.5000    5.8880    0.0000 C   0  0  0  0  0  0  0  0  0  0  0  0
    2.2500    7.1870    0.0000 C   0  0  0  0  0  0  0  0  0  0  0  0
    1.5000    8.4860    0.0000 O   0  0  0  0  0  0  0  0  0  0  0  0
    3.7500    7.1870    0.0000 O   0  0  0  0  0  0  0  0  0  0  0  0
  1  2  1  0
  2  3  1  0
  2  4  1  0
  4  5  1  0
  5  6  2  0
  5  7  1  0
  7  8  1  1
  7  9  1  0
  9 10  1  0
 10 11  2  0
 10 12  1  6
 12 13  1  0
 13 14  1  0
 14 15  1  6
 14 16  1  0
 16 17  1  0
 17 18  1  0
 18 19  2  0
 19 20  1  0
 20 21  2  0
 21 22  1  0
 21 23  1  0
 23 24  2  0
 24 25  1  0
 25 26  2  0
 10 27  1  0
 27 28  1  0
 28 29  2  0
 29 30  1  0
 30 31  2  0
 31 32  1  0
 32 33  2  0
 34 35  1  0
 35 36  1  0
 35 37  1  0
 37 38  1  0
 38 39  2  0
 38 40  1  0
 40 41  1  1
 40 42  1  0
 42 43  1  0
 43 44  2  0
 43 45  1  6
 45 46  1  0
 46 47  1  0
 47 48  1  6
 47 49  1  0
 49 50  1  0
 50 51  1  0
 51 52  2  0
 52 53  1  0
 53 54  2  0
 54 55  1  0
 54 56  1  0
 56 57  2  0
 57 58  1  0
 58 59  2  0
 43 60  1  0
 60 61  1  0
 61 62  2  0
 62 63  1  0
 63 64  2  0
 64 65  1  0
 65 66  2  0
 67 68  1  0
 68 69  2  0
 68 70  1  0
 70 71  2  0
 71 72  1  0
 72 73  2  0
 72 74  1  0
 26 17  1  0
 26 20  1  0
 33 28  1  0
 59 50  1  0
 59 53  1  0
 66 61  1  0
M  END
$$$$
708075
     RDKit          2D

 36 38  0  0  0  0  0  0  0  0999 V2000
    7.1695   -7.9794    0.0000 C   0  0  0  0  0  0  0  0  0  0  0  0
    6.2878   -9.1929    0.0000 C   0  0  0  0  0  0  0  0  0  0  0  0
    6.8979  -10.5632    0.0000 C   0  0  0  0  0  0  0  0  0  0  0  0
    4.7961   -9.0361    0.0000 O   0  0  0  0  0  0  0  0  0  0  0  0
    3.9144  -10.2497    0.0000 C   0  0  0  0  0  0  0  0  0  0  0  0
    4.5245  -11.6200    0.0000 O   0  0  0  0  0  0  0  0  0  0  0  0
    2.4226  -10.0929    0.0000 C   0  0  0  0  0  0  0  0  0  0  0  0
    1.5409  -11.3064    0.0000 C   0  0  0  0  0  0  0  0  0  0  0  0
    1.8125   -8.7226    0.0000 N   0  0  0  0  0  0  0  0  0  0  0  0
    0.3207   -8.5658    0.0000 P   0  0  0  0  0  5  0  0  0  0  0  0
   -1.1711   -8.4090    0.0000 O   0  0  0  0  0  0  0  0  0  0  0  0
    0.4775   -7.0740    0.0000 O   0  0  0  0  0  0  0  0  0  0  0  0
    1.8478   -6.4639    0.0000 C   0  0  0  0  0  0  0  0  0  0  0  0
    2.0046   -4.9721    0.0000 C   0  0  0  0  0  0  0  0  0  0  0  0
    0.8899   -3.9684    0.0000 O   0  0  0  0  0  0  0  0  0  0  0  0
    1.5000   -2.5981    0.0000 C   0  0  0  0  0  0  0  0  0  0  0  0
    0.7500   -1.2990    0.0000 N   0  0  0  0  0  0  0  0  0  0  0  0
    1.5000    0.0000    0.0000 C   0  0  0  0  0  0  0  0  0  0  0  0
    0.7500    1.2990    0.0000 C   0  0  0  0  0  0  0  0  0  0  0  0
   -0.7500    1.2990    0.0000 C   0  0  0  0  0  0  0  0  0  0  0  0
   -1.5000    2.5981    0.0000 O   0  0  0  0  0  0  0  0  0  0  0  0
   -1.5000    0.0000    0.0000 N   0  0  0  0  0  0  0  0  0  0  0  0
   -0.7500   -1.2990    0.0000 C   0  0  0  0  0  0  0  0  0  0  0  0
   -1.5000   -2.5981    0.0000 O   0  0  0  0  0  0  0  0  0  0  0  0
    2.9918   -2.7549    0.0000 C   0  0  0  0  0  0  0  0  0  0  0  0
    2.9918   -1.2549    0.0000 C   0  0  0  0  0  0  0  0  0  0  0  0
    4.4836   -2.5981    0.0000 F   0  0  0  0  0  0  0  0  0  0  0  0
    3.3037   -4.2221    0.0000 C   0  0  0  0  0  0  0  0  0  0  0  0
    4.6740   -4.8322    0.0000 O   0  0  0  0  0  0  0  0  0  0  0  0
    0.1639  -10.0575    0.0000 O   0  0  0  0  0  0  0  0  0  0  0  0
   -1.2064  -10.6676    0.0000 C   0  0  0  0  0  0  0  0  0  0  0  0
   -2.4199   -9.7860    0.0000 C   0  0  0  0  0  0  0  0  0  0  0  0
   -3.7902  -10.3961    0.0000 C   0  0  0  0  0  0  0  0  0  0  0  0
   -3.9470  -11.8879    0.0000 C   0  0  0  0  0  0  0  0  0  0  0  0
   -2.7335  -12.7695    0.0000 C   0  0  0  0  0  0  0  0  0  0  0  0
   -1.3632  -12.1594    0.0000 C   0  0  0  0  0  0  0  0  0  0  0  0
  1  2  1  0
  2  3  1  0
  2  4  1  0
  4  5  1  0
  5  6  2  0
  5  7  1  0
  7  8  1  6
  7  9  1  0
 10  9  1  6
 10 11  2  0
 10 12  1  0
 12 13  1  0
 14 13  1  1
 14 15  1  0
 15 16  1  0
 16 17  1  1
 17 18  1  0
 18 19  2  0
 19 20  1  0
 20 21  2  0
 20 22  1  0
 22 23  1  0
 23 24  2  0
 16 25  1  0
 25 26  1  1
 25 27  1  0
 25 28  1  0
 28 29  1  6
 10 30  1  0
 30 31  1  0
 31 32  2  0
 32 33  1  0
 33 34  2  0
 34 35  1  0
 35 36  2  0
 28 14  1  0
 23 17  1  0
 36 31  1  0
M  END
$$$$
1570706
     RDKit          2D

 38 41  0  0  0  0  0  0  0  0999 V2000
    5.2500   -1.2990    0.0000 C   0  0  0  0  0  0  0  0  0  0  0  0
    3.7500   -1.2990    0.0000 C   0  0  0  0  0  0  0  0  0  0  0  0
    3.0000   -2.5981    0.0000 C   0  0  0  0  0  0  0  0  0  0  0  0
    3.0000    0.0000    0.0000 O   0  0  0  0  0  0  0  0  0  0  0  0
    1.5000    0.0000    0.0000 C   0  0  0  0  0  0  0  0  0  0  0  0
    0.7500   -1.2990    0.0000 C   0  0  0  0  0  0  0  0  0  0  0  0
   -0.7500   -1.2990    0.0000 C   0  0  0  0  0  0  0  0  0  0  0  0
   -1.5000   -2.5981    0.0000 C   0  0  0  0  0  0  0  0  0  0  0  0
   -3.0000   -2.5981    0.0000 C   0  0  0  0  0  0  0  0  0  0  0  0
   -3.7500   -3.8971    0.0000 C   0  0  0  0  0  0  0  0  0  0  0  0
   -3.0000   -5.1962    0.0000 N   0  0  0  0  0  0  0  0  0  0  0  0
   -1.5000   -5.1962    0.0000 C   0  0  0  0  0  0  0  0  0  0  0  0
   -0.7500   -3.8971    0.0000 C   0  0  0  0  0  0  0  0  0  0  0  0
   -1.5000    0.0000    0.0000 C   0  0  0  0  0  0  0  0  0  0  0  0
   -3.0000    0.0000    0.0000 C   0  0  0  0  0  0  0  0  0  0  0  0
   -0.7500    1.2990    0.0000 C   0  0  0  0  0  0  0  0  0  0  0  0
    0.7500    1.2990    0.0000 C   0  0  0  0  0  0  0  0  0  0  0  0
    1.5000    2.5981    0.0000 N   0  0  0  0  0  0  0  0  0  0  0  0
    3.0000    2.5981    0.0000 C   0  0  0  0  0  0  0  0  0  0  0  0
    3.7500    1.2990    0.0000 N   0  0  0  0  0  0  0  0  0  0  0  0
    5.2500    1.2990    0.0000 C   0  0  0  0  0  0  0  0  0  0  0  0
    6.0000    2.5981    0.0000 C   0  0  0  0  0  0  0  0  0  0  0  0
    7.5000    2.5981    0.0000 Cl  0  0  0  0  0  0  0  0  0  0  0  0
    5.2500    3.8971    0.0000 C   0  0  0  0  0  0  0  0  0  0  0  0
    6.0000    5.1962    0.0000 N   0  0  0  0  0  0  0  0  0  0  0  0
    5.2500    6.4952    0.0000 C   0  0  0  0  0  0  0  0  0  0  0  0
    3.7500    6.4952    0.0000 C   0  0  0  0  0  0  0  0  0  0  0  0
    3.0000    7.7942    0.0000 C   0  0  0  0  0  0  0  0  0  0  0  0
    3.7500    9.0933    0.0000 C   0  0  0  0  0  0  0  0  0  0  0  0
    5.2500    9.0933    0.0000 C   0  0  0  0  0  0  0  0  0  0  0  0
    6.0000    7.7942    0.0000 C   0  0  0  0  0  0  0  0  0  0  0  0
    7.5000    7.7942    0.0000 S   0  0  0  0  0  0  0  0  0  0  0  0
    7.5000    6.2942    0.0000 O   0  0  0  0  0  0  0  0  0  0  0  0
    7.5000    9.2942    0.0000 O   0  0  0  0  0  0  0  0  0  0  0  0
    9.0000    7.7942    0.0000 C   0  0  0  0  0  0  0  0  0  0  0  0
    9.7500    9.0933    0.0000 C   0  0  0  0  0  0  0  0  0  0  0  0
    9.7500    6.4952    0.0000 C   0  0  0  0  0  0  0  0  0  0  0  0
    3.7500    3.8971    0.0000 N   0  0  0  0  0  0  0  0  0  0  0  0
  1  2  1  0
  2  3  1  0
  2  4  1  0
  4  5  1  0
  5  6  2  0
  6  7  1  0
  7  8  1  0
  8  9  1  0
  9 10  1  0
 10 11  1  0
 11 12  1  0
 12 13  1  0
  7 14  2  0
 14 15  1  0
 14 16  1  0
 16 17  2  0
 17 18  1  0
 18 19  1  0
 19 20  2  0
 20 21  1  0
 21 22  2  0
 22 23  1  0
 22 24  1  0
 24 25  1  0
 25 26  1  0
 26 27  2  0
 27 28  1  0
 28 29  2  0
 29 30  1  0
 30 31  2  0
 31 32  1  0
 32 33  2  0
 32 34  2  0
 32 35  1  0
 35 36  1  0
 35 37  1  0
 24 38  2  0
 17  5  1  0
 13  8  1  0
 38 19  1  0
 31 26  1  0
M  END
$$$$
430124
     RDKit          2D

 29 31  0  0  0  0  0  0  0  0999 V2000
   -2.8345    6.5607    0.0000 C   0  0  0  0  0  0  0  0  0  0  0  0
   -3.1463    5.0935    0.0000 C   0  0  0  0  0  0  0  0  0  0  0  0
   -2.0316    4.0898    0.0000 C   0  0  0  0  0  0  0  0  0  0  0  0
   -4.5729    4.6300    0.0000 C   0  0  0  0  0  0  0  0  0  0  0  0
   -5.6876    5.6337    0.0000 C   0  0  0  0  0  0  0  0  0  0  0  0
   -4.8848    3.1627    0.0000 C   0  0  0  0  0  0  0  0  0  0  0  0
   -3.7701    2.1590    0.0000 C   0  0  0  0  0  0  0  0  0  0  0  0
   -4.0819    0.6918    0.0000 C   0  0  0  0  0  0  0  0  0  0  0  0
   -5.5085    0.2283    0.0000 C   0  0  0  0  0  0  0  0  0  0  0  0
   -2.9672   -0.3119    0.0000 C   0  0  0  0  0  0  0  0  0  0  0  0
   -3.1240   -1.8037    0.0000 C   0  0  0  0  0  0  0  0  0  0  0  0
   -1.7537   -2.4138    0.0000 C   0  0  0  0  0  0  0  0  0  0  0  0
   -0.7500   -1.2990    0.0000 C   0  0  0  0  0  0  0  0  0  0  0  0
    0.7500   -1.2990    0.0000 C   0  0  0  0  0  0  0  0  0  0  0  0
    1.5000   -2.5981    0.0000 C   0  0  0  0  0  0  0  0  0  0  0  0
    3.0000   -2.5981    0.0000 C   0  0  0  0  0  0  0  0  0  0  0  0
    3.7500   -3.8971    0.0000 C   0  0  0  0  0  0  0  0  0  0  0  0
    5.2500   -3.8971    0.0000 C   0  0  0  0  0  0  0  0  0  0  0  0
    6.0000   -5.1962    0.0000 C   0  0  0  0  0  0  0  0  0  0  0  0
    7.5000   -5.1962    0.0000 O   0  0  0  0  0  0  0  0  0  0  0  0
    5.2500   -6.4952    0.0000 C   0  0  0  0  0  0  0  0  0  0  0  0
    3.7500   -6.4952    0.0000 C   0  0  0  0  0  0  0  0  0  0  0  0
    3.0000   -5.1962    0.0000 C   0  0  0  0  0  0  0  0  0  0  0  0
    1.5000   -5.1962    0.0000 C   0  0  0  0  0  0  0  0  0  0  0  0
    1.5000    0.0000    0.0000 C   0  0  0  0  0  0  0  0  0  0  0  0
    0.7500    1.2990    0.0000 C   0  0  0  0  0  0  0  0  0  0  0  0
   -0.7500    1.2990    0.0000 C   0  0  0  0  0  0  0  0  0  0  0  0
   -1.5000    0.0000    0.0000 C   0  0  0  0  0  0  0  0  0  0  0  0
   -2.3817    1.2135    0.0000 C   0  0  0  0  0  0  0  0  0  0  0  0
  1  2  1  0
  2  3  1  0
  2  4  1  0
  4  5  1  6
  4  6  1  0
  6  7  2  0
  7  8  1  0
  8  9  1  6
  8 10  1  0
 10 11  1  6
 11 12  1  0
 13 12  1  6
 13 14  1  0
 14 15  2  0
 15 16  1  0
 16 17  2  0
 17 18  1  0
 18 19  1  0
 19 20  1  1
 19 21  1  0
 21 22  1  0
 22 23  1  0
 23 24  2  0
 14 25  1  0
 25 26  1  0
 26 27  1  0
 27 28  1  0
 28 29  1  6
 28 10  1  0
 28 13  1  0
 23 17  1  0
M  END
$$$$
674761
     RDKit          2D

 30 32  0  0  0  0  0  0  0  0999 V2000
   -2.8345    6.5607    0.0000 C   0  0  0  0  0  0  0  0  0  0  0  0
   -3.1463    5.0935    0.0000 C   0  0  0  0  0  0  0  0  0  0  0  0
   -2.0316    4.0898    0.0000 C   0  0  0  0  0  0  0  0  0  0  0  0
   -4.5729    4.6300    0.0000 C   0  0  0  0  0  0  0  0  0  0  0  0
   -5.6876    5.6337    0.0000 C   0  0  0  0  0  0  0  0  0  0  0  0
   -4.8848    3.1627    0.0000 C   0  0  0  0  0  0  0  0  0  0  0  0
   -3.7701    2.1590    0.0000 C   0  0  0  0  0  0  0  0  0  0  0  0
   -4.0819    0.6918    0.0000 C   0  0  0  0  0  0  0  0  0  0  0  0
   -5.5085    0.2283    0.0000 C   0  0  0  0  0  0  0  0  0  0  0  0
   -2.9672   -0.3119    0.0000 C   0  0  0  0  0  0  0  0  0  0  0  0
   -3.1240   -1.8037    0.0000 C   0  0  0  0  0  0  0  0  0  0  0  0
   -1.7537   -2.4138    0.0000 C   0  0  0  0  0  0  0  0  0  0  0  0
   -0.7500   -1.2990    0.0000 C   0  0  0  0  0  0  0  0  0  0  0  0
    0.7500   -1.2990    0.0000 C   0  0  0  0  0  0  0  0  0  0  0  0
    1.5000   -2.5981    0.0000 C   0  0  0  0  0  0  0  0  0  0  0  0
    3.0000   -2.5981    0.0000 C   0  0  0  0  0  0  0  0  0  0  0  0
    3.7500   -3.8971    0.0000 C   0  0  0  0  0  0  0  0  0  0  0  0
    5.2500   -3.8971    0.0000 C   0  0  0  0  0  0  0  0  0  0  0  0
    6.0000   -5.1962    0.0000 C   0  0  0  0  0  0  0  0  0  0  0  0
    7.5000   -5.1962    0.0000 O   0  0  0  0  0  0  0  0  0  0  0  0
    5.2500   -6.4952    0.0000 C   0  0  0  0  0  0  0  0  0  0  0  0
    3.7500   -6.4952    0.0000 C   0  0  0  0  0  0  0  0  0  0  0  0
    3.0000   -7.7942    0.0000 O   0  0  0  0  0  0  0  0  0  0  0  0
    3.0000   -5.1962    0.0000 C   0  0  0  0  0  0  0  0  0  0  0  0
    1.5000   -5.1962    0.0000 C   0  0  0  0  0  0  0  0  0  0  0  0
    1.5000    0.0000    0.0000 C   0  0  0  0  0  0  0  0  0  0  0  0
    0.7500    1.2990    0.0000 C   0  0  0  0  0  0  0  0  0  0  0  0
   -0.7500    1.2990    0.0000 C   0  0  0  0  0  0  0  0  0  0  0  0
   -1.5000    0.0000    0.0000 C   0  0  0  0  0  0  0  0  0  0  0  0
   -2.3817    1.2135    0.0000 C   0  0  0  0  0  0  0  0  0  0  0  0
  1  2  1  0
  2  3  1  0
  2  4  1  0
  4  5  1  6
  4  6  1  0
  6  7  2  0
  7  8  1  0
  8  9  1  6
  8 10  1  0
 10 11  1  6
 11 12  1  0
 13 12  1  6
 13 14  1  0
 14 15  2  0
 15 16  1  0
 16 17  2  0
 17 18  1  0
 18 19  1  0
 19 20  1  1
 19 21  1  0
 21 22  1  0
 22 23  1  6
 22 24  1  0
 24 25  2  0
 14 26  1  0
 26 27  1  0
 27 28  1  0
 28 29  1  0
 29 30  1  6
 29 10  1  0
 29 13  1  0
 24 17  1  0
M  END
$$$$
46727
     RDKit          2D

 23 24  0  0  0  0  0  0  0  0999 V2000
    3.7500   -1.2990    0.0000 C   0  0  0  0  0  0  0  0  0  0  0  0
    3.0000    0.0000    0.0000 C   0  0  0  0  0  0  0  0  0  0  0  0
    3.7500    1.2990    0.0000 C   0  0  0  0  0  0  0  0  0  0  0  0
    1.5000    0.0000    0.0000 C   0  0  0  0  0  0  0  0  0  0  0  0
    0.7500   -1.2990    0.0000 C   0  0  0  0  0  0  0  0  0  0  0  0
   -0.7500   -1.2990    0.0000 C   0  0  0  0  0  0  0  0  0  0  0  0
   -1.5000    0.0000    0.0000 C   0  0  0  0  0  0  0  0  0  0  0  0
   -0.7500    1.2990    0.0000 C   0  0  0  0  0  0  0  0  0  0  0  0
    0.7500    1.2990    0.0000 C   0  0  0  0  0  0  0  0  0  0  0  0
   -3.0000    0.0000    0.0000 C   0  0  0  0  0  0  0  0  0  0  0  0
   -3.7500   -1.2990    0.0000 O   0  0  0  0  0  0  0  0  0  0  0  0
   -3.7500    1.2990    0.0000 N   0  0  0  0  0  0  0  0  0  0  0  0
   -5.2500    1.2990    0.0000 C   0  0  0  0  0  0  0  0  0  0  0  0
   -6.0000    2.5981    0.0000 C   0  0  0  0  0  0  0  0  0  0  0  0
   -7.5000    2.5981    0.0000 C   0  0  0  0  0  0  0  0  0  0  0  0
   -8.2500    3.8971    0.0000 C   0  0  0  0  0  0  0  0  0  0  0  0
   -9.7500    3.8971    0.0000 C   0  0  0  0  0  0  0  0  0  0  0  0
  -10.5000    2.5981    0.0000 C   0  0  0  0  0  0  0  0  0  0  0  0
   -9.7500    1.2990    0.0000 C   0  0  0  0  0  0  0  0  0  0  0  0
   -8.2500    1.2990    0.0000 C   0  0  0  0  0  0  0  0  0  0  0  0
   -6.0000    0.0000    0.0000 C   0  0  0  0  0  0  0  0  0  0  0  0
   -5.2500   -1.2990    0.0000 O   0  0  0  0  0  0  0  0  0  0  0  0
   -7.5000    0.0000    0.0000 O   0  0  0  0  0  0  0  0  0  0  0  0
  1  2  1  0
  2  3  1  0
  4  2  1  6
  4  5  1  0
  5  6  1  0
  6  7  1  0
  7  8  1  0
  8  9  1  0
  7 10  1  1
 10 11  2  0
 10 12  1  0
 12 13  1  0
 13 14  1  1
 14 15  1  0
 15 16  2  0
 16 17  1  0
 17 18  2  0
 18 19  1  0
 19 20  2  0
 13 21  1  0
 21 22  2  0
 21 23  1  0
  9  4  1  0
 20 15  1  0
M  END
$$$$
675265
     RDKit          2D

 25 26  0  0  0  0  0  0  0  0999 V2000
   11.7760   -2.5981    0.0000 C   0  0  0  0  0  0  0  0  0  0  0  0
   10.2760   -2.5981    0.0000 C   0  0  0  0  0  0  0  0  0  0  0  0
    9.5260   -3.8971    0.0000 C   0  0  0  0  0  0  0  0  0  0  0  0
    9.5260   -1.2990    0.0000 C   0  0  0  0  0  0  0  0  0  0  0  0
   10.2760    0.0000    0.0000 N   0  0  0  0  0  0  0  0  0  0  0  0
    8.0260   -1.2990    0.0000 C   0  0  0  0  0  0  0  0  0  0  0  0
    7.2760   -2.5981    0.0000 O   0  0  0  0  0  0  0  0  0  0  0  0
    7.2760   -0.0000    0.0000 O   0  0  0  0  0  0  0  0  0  0  0  0
    5.7760   -0.0000    0.0000 C   0  0  0  0  0  0  0  0  0  0  0  0
    5.0260    1.2990    0.0000 C   0  0  0  0  0  0  0  0  0  0  0  0
    5.7760    2.5981    0.0000 C   0  0  0  0  0  0  0  0  0  0  0  0
    7.2760    2.5981    0.0000 O   0  0  0  0  0  0  0  0  0  0  0  0
    3.5260    1.2990    0.0000 O   0  0  0  0  0  0  0  0  0  0  0  0
    2.7760    0.0000    0.0000 C   0  0  0  0  0  0  0  0  0  0  0  0
    1.2760    0.0000    0.0000 N   0  0  0  0  0  0  0  0  0  0  0  0
    0.3943    1.2135    0.0000 C   0  0  0  0  0  0  0  0  0  0  0  0
   -1.0323    0.7500    0.0000 N   0  0  0  0  0  0  0  0  0  0  0  0
   -1.0323   -0.7500    0.0000 C   0  0  0  0  0  0  0  0  0  0  0  0
   -2.1470   -1.7537    0.0000 C   0  0  0  0  0  0  0  0  0  0  0  0
   -3.5736   -1.2902    0.0000 O   0  0  0  0  0  0  0  0  0  0  0  0
   -1.8351   -3.2209    0.0000 N   0  0  0  0  0  0  0  0  0  0  0  0
   -0.4086   -3.6844    0.0000 C   0  0  0  0  0  0  0  0  0  0  0  0
    0.7062   -2.6807    0.0000 N   0  0  0  0  0  0  0  0  0  0  0  0
    0.3943   -1.2135    0.0000 C   0  0  0  0  0  0  0  0  0  0  0  0
   -0.0967   -5.1517    0.0000 N   0  0  0  0  0  0  0  0  0  0  0  0
  1  2  1  0
  2  3  1  0
  2  4  1  0
  4  5  1  1
  4  6  1  0
  6  7  2  0
  6  8  1  0
  8  9  1  0
  9 10  1  0
 10 11  1  0
 11 12  1  0
 10 13  1  0
 13 14  1  0
 14 15  1  0
 15 16  1  0
 16 17  2  0
 17 18  1  0
 18 19  1  0
 19 20  2  0
 19 21  1  0
 21 22  1  0
 22 23  2  0
 23 24  1  0
 22 25  1  0
 24 15  1  0
 24 18  2  0
M  END
$$$$
297372
     RDKit          2D

 23 24  0  0  0  0  0  0  0  0999 V2000
   11.7760    5.1962    0.0000 C   0  0  0  0  0  0  0  0  0  0  0  0
   10.2760    5.1962    0.0000 C   0  0  0  0  0  0  0  0  0  0  0  0
    9.5260    6.4952    0.0000 C   0  0  0  0  0  0  0  0  0  0  0  0
    9.5260    3.8971    0.0000 C   0  0  0  0  0  0  0  0  0  0  0  0
   10.2760    2.5981    0.0000 N   0  0  0  0  0  0  0  0  0  0  0  0
    8.0260    3.8971    0.0000 C   0  0  0  0  0  0  0  0  0  0  0  0
    7.2760    5.1962    0.0000 O   0  0  0  0  0  0  0  0  0  0  0  0
    7.2760    2.5981    0.0000 O   0  0  0  0  0  0  0  0  0  0  0  0
    5.7760    2.5981    0.0000 C   0  0  0  0  0  0  0  0  0  0  0  0
    5.0260    1.2990    0.0000 C   0  0  0  0  0  0  0  0  0  0  0  0
    3.5260    1.2990    0.0000 O   0  0  0  0  0  0  0  0  0  0  0  0
    2.7760    0.0000    0.0000 C   0  0  0  0  0  0  0  0  0  0  0  0
    1.2760    0.0000    0.0000 N   0  0  0  0  0  0  0  0  0  0  0  0
    0.3943    1.2135    0.0000 C   0  0  0  0  0  0  0  0  0  0  0  0
   -1.0323    0.7500    0.0000 N   0  0  0  0  0  0  0  0  0  0  0  0
   -1.0323   -0.7500    0.0000 C   0  0  0  0  0  0  0  0  0  0  0  0
   -2.1470   -1.7537    0.0000 C   0  0  0  0  0  0  0  0  0  0  0  0
   -3.5736   -1.2902    0.0000 O   0  0  0  0  0  0  0  0  0  0  0  0
   -1.8351   -3.2209    0.0000 N   0  0  0  0  0  0  0  0  0  0  0  0
   -0.4086   -3.6844    0.0000 C   0  0  0  0  0  0  0  0  0  0  0  0
   -0.0967   -5.1517    0.0000 N   0  0  0  0  0  0  0  0  0  0  0  0
    0.7062   -2.6807    0.0000 N   0  0  0  0  0  0  0  0  0  0  0  0
    0.3943   -1.2135    0.0000 C   0  0  0  0  0  0  0  0  0  0  0  0
  1  2  1  0
  2  3  1  0
  2  4  1  0
  4  5  1  6
  4  6  1  0
  6  7  2  0
  6  8  1  0
  8  9  1  0
  9 10  1  0
 10 11  1  0
 11 12  1  0
 12 13  1  0
 13 14  1  0
 14 15  2  0
 15 16  1  0
 16 17  1  0
 17 18  2  0
 17 19  1  0
 19 20  2  0
 20 21  1  0
 20 22  1  0
 22 23  1  0
 23 13  1  0
 23 16  2  0
M  END
$$$$
37316
     RDKit          2D

 46 49  0  0  0  0  0  0  0  0999 V2000
    3.7500   -3.8971    0.0000 C   0  0  0  0  0  0  0  0  0  0  0  0
    3.0000   -2.5981    0.0000 C   0  0  0  0  0  0  0  0  0  0  0  0
    3.7500   -1.2990    0.0000 C   0  0  0  0  0  0  0  0  0  0  0  0
    1.5000   -2.5981    0.0000 C   0  0  0  0  0  0  0  0  0  0  0  0
    0.7500   -1.2990    0.0000 N   0  0  0  0  0  0  0  0  0  0  0  0
    1.5000    0.0000    0.0000 C   0  0  0  0  0  0  0  0  0  0  0  0
    0.7500    1.2990    0.0000 C   0  0  0  0  0  0  0  0  0  0  0  0
   -0.7500    1.2990    0.0000 C   0  0  0  0  0  0  0  0  0  0  0  0
   -1.5000    0.0000    0.0000 N   0  0  0  0  0  0  0  0  0  0  0  0
   -0.7500   -1.2990    0.0000 C   0  0  0  0  0  0  0  0  0  0  0  0
   -1.5000   -2.5981    0.0000 O   0  0  0  0  0  0  0  0  0  0  0  0
    0.7500   -3.8971    0.0000 C   0  0  0  0  0  0  0  0  0  0  0  0
   -0.7500   -3.8971    0.0000 O   0  0  0  0  0  0  0  0  0  0  0  0
    1.5000   -5.1962    0.0000 N   0  0  0  0  0  0  0  0  0  0  0  0
    0.7500   -6.4952    0.0000 C   0  0  0  0  0  0  0  0  0  0  0  0
   -0.7500   -6.4952    0.0000 C   0  0  0  0  0  0  0  0  0  0  0  0
   -1.5000   -7.7942    0.0000 C   0  0  0  0  0  0  0  0  0  0  0  0
   -1.0866   -9.2361    0.0000 O   0  0  0  0  0  0  0  0  0  0  0  0
   -3.0000   -7.7942    0.0000 C   0  0  0  0  0  0  0  0  0  0  0  0
   -3.7500   -9.0933    0.0000 C   0  0  0  0  0  0  0  0  0  0  0  0
   -5.2500   -9.0933    0.0000 C   0  0  0  0  0  0  0  0  0  0  0  0
   -6.0000   -7.7942    0.0000 C   0  0  0  0  0  0  0  0  0  0  0  0
   -7.5000   -7.7942    0.0000 C   0  0  0  0  0  0  0  0  0  0  0  0
   -8.2500   -9.0933    0.0000 C   0  0  0  0  0  0  0  0  0  0  0  0
   -7.5000  -10.3923    0.0000 C   0  0  0  0  0  0  0  0  0  0  0  0
   -6.0000  -10.3923    0.0000 C   0  0  0  0  0  0  0  0  0  0  0  0
   -3.7500   -6.4952    0.0000 N   0  0  0  0  0  0  0  0  0  0  0  0
   -5.2500   -6.4952    0.0000 C   0  0  0  0  0  0  0  0  0  0  0  0
   -5.8038   -7.0686    0.0000 O   0  0  0  0  0  0  0  0  0  0  0  0
   -6.0000   -5.1962    0.0000 C   0  0  0  0  0  0  0  0  0  0  0  0
   -7.5000   -5.1962    0.0000 O   0  0  0  0  0  0  0  0  0  0  0  0
   -8.2500   -3.8971    0.0000 C   0  0  0  0  0  0  0  0  0  0  0  0
   -7.5000   -2.5981    0.0000 C   0  0  0  0  0  0  0  0  0  0  0  0
   -6.0000   -2.5981    0.0000 C   0  0  0  0  0  0  0  0  0  0  0  0
   -8.2500   -1.2990    0.0000 C   0  0  0  0  0  0  0  0  0  0  0  0
   -9.7500   -1.2990    0.0000 C   0  0  0  0  0  0  0  0  0  0  0  0
  -10.5000   -2.5981    0.0000 C   0  0  0  0  0  0  0  0  0  0  0  0
   -9.7500   -3.8971    0.0000 C   0  0  0  0  0  0  0  0  0  0  0  0
  -10.5000   -5.1962    0.0000 C   0  0  0  0  0  0  0  0  0  0  0  0
    1.5000   -7.7942    0.0000 C   0  0  0  0  0  0  0  0  0  0  0  0
    0.7500   -9.0933    0.0000 C   0  0  0  0  0  0  0  0  0  0  0  0
   -0.7500   -9.0933    0.0000 C   0  0  0  0  0  0  0  0  0  0  0  0
   -1.5000  -10.3923    0.0000 C   0  0  0  0  0  0  0  0  0  0  0  0
   -0.7500  -11.6913    0.0000 C   0  0  0  0  0  0  0  0  0  0  0  0
    0.7500  -11.6913    0.0000 C   0  0  0  0  0  0  0  0  0  0  0  0
    1.5000  -10.3923    0.0000 C   0  0  0  0  0  0  0  0  0  0  0  0
  1  2  1  0
  2  3  1  0
  4  2  1  1
  4  5  1  0
  5  6  1  0
  6  7  1  0
  7  8  1  0
  8  9  1  0
  9 10  1  0
 10 11  2  0
  4 12  1  0
 12 13  2  0
 12 14  1  0
 14 15  1  0
 15 16  1  1
 16 17  1  0
 17 18  1  6
 17 19  1  0
 19 20  1  6
 20 21  1  0
 21 22  2  0
 22 23  1  0
 23 24  2  0
 24 25  1  0
 25 26  2  0
 19 27  1  0
 27 28  1  0
 28 29  2  0
 28 30  1  0
 30 31  1  0
 31 32  1  0
 32 33  2  0
 33 34  1  0
 33 35  1  0
 35 36  2  0
 36 37  1  0
 37 38  2  0
 38 39  1  0
 15 40  1  0
 40 41  1  0
 41 42  2  0
 42 43  1  0
 43 44  2  0
 44 45  1  0
 45 46  2  0
 10  5  1  0
 26 21  1  0
 38 32  1  0
 46 41  1  0
M  END
$$$$
88100
     RDKit          2D

 50 53  0  0  0  0  0  0  0  0999 V2000
    7.5000  -10.3923    0.0000 C   0  0  0  0  0  0  0  0  0  0  0  0
    6.0000  -10.3923    0.0000 C   0  0  0  0  0  0  0  0  0  0  0  0
    5.2500  -11.6913    0.0000 C   0  0  0  0  0  0  0  0  0  0  0  0
    5.2500   -9.0933    0.0000 C   0  0  0  0  0  0  0  0  0  0  0  0
    6.0000   -7.7942    0.0000 N   0  0  0  0  0  0  0  0  0  0  0  0
    7.5000   -7.7942    0.0000 C   0  0  0  0  0  0  0  0  0  0  0  0
    8.2500   -9.0933    0.0000 O   0  0  0  0  0  0  0  0  0  0  0  0
    8.2500   -6.4952    0.0000 N   0  0  0  0  0  0  0  0  0  0  0  0
    9.7500   -6.4952    0.0000 C   0  0  0  0  0  0  0  0  0  0  0  0
    7.5000   -5.1962    0.0000 C   0  0  0  0  0  0  0  0  0  0  0  0
    8.2500   -3.8971    0.0000 C   0  0  0  0  0  0  0  0  0  0  0  0
    7.6399   -2.5268    0.0000 C   0  0  0  0  0  0  0  0  0  0  0  0
    8.7546   -1.5231    0.0000 S   0  0  0  0  0  0  0  0  0  0  0  0
   10.0537   -2.2731    0.0000 C   0  0  0  0  0  0  0  0  0  0  0  0
    9.7418   -3.7403    0.0000 N   0  0  0  0  0  0  0  0  0  0  0  0
   11.4240   -1.6630    0.0000 C   0  0  0  0  0  0  0  0  0  0  0  0
   12.6375   -2.5447    0.0000 C   0  0  0  0  0  0  0  0  0  0  0  0
   11.5808   -0.1712    0.0000 C   0  0  0  0  0  0  0  0  0  0  0  0
    3.7500   -9.0933    0.0000 C   0  0  0  0  0  0  0  0  0  0  0  0
    3.0000  -10.3923    0.0000 O   0  0  0  0  0  0  0  0  0  0  0  0
    3.0000   -7.7942    0.0000 N   0  0  0  0  0  0  0  0  0  0  0  0
    1.5000   -7.7942    0.0000 C   0  0  0  0  0  0  0  0  0  0  0  0
    0.7500   -6.4952    0.0000 C   0  0  0  0  0  0  0  0  0  0  0  0
    1.5000   -5.1962    0.0000 C   0  0  0  0  0  0  0  0  0  0  0  0
    3.0000   -5.1962    0.0000 O   0  0  0  0  0  0  0  0  0  0  0  0
    0.7500   -3.8971    0.0000 C   0  0  0  0  0  0  0  0  0  0  0  0
    1.5000   -2.5981    0.0000 C   0  0  0  0  0  0  0  0  0  0  0  0
    0.7500   -1.2990    0.0000 C   0  0  0  0  0  0  0  0  0  0  0  0
    1.5000    0.0000    0.0000 C   0  0  0  0  0  0  0  0  0  0  0  0
    0.7500    1.2990    0.0000 C   0  0  0  0  0  0  0  0  0  0  0  0
   -0.7500    1.2990    0.0000 C   0  0  0  0  0  0  0  0  0  0  0  0
   -1.5000    0.0000    0.0000 C   0  0  0  0  0  0  0  0  0  0  0  0
   -0.7500   -1.2990    0.0000 C   0  0  0  0  0  0  0  0  0  0  0  0
   -0.7500   -3.8971    0.0000 N   0  0  0  0  0  0  0  0  0  0  0  0
   -1.5000   -5.1962    0.0000 C   0  0  0  0  0  0  0  0  0  0  0  0
   -0.7500   -6.4952    0.0000 O   0  0  0  0  0  0  0  0  0  0  0  0
   -3.0000   -5.1962    0.0000 O   0  0  0  0  0  0  0  0  0  0  0  0
   -3.7500   -6.4952    0.0000 C   0  0  0  0  0  0  0  0  0  0  0  0
   -5.2500   -6.4952    0.0000 C   0  0  0  0  0  0  0  0  0  0  0  0
   -6.1317   -7.7087    0.0000 C   0  0  0  0  0  0  0  0  0  0  0  0
   -7.5583   -7.2452    0.0000 N   0  0  0  0  0  0  0  0  0  0  0  0
   -7.5583   -5.7452    0.0000 C   0  0  0  0  0  0  0  0  0  0  0  0
   -6.1317   -5.2817    0.0000 S   0  0  0  0  0  0  0  0  0  0  0  0
    0.7500   -9.0933    0.0000 C   0  0  0  0  0  0  0  0  0  0  0  0
   -0.7500   -9.0933    0.0000 C   0  0  0  0  0  0  0  0  0  0  0  0
   -1.5000   -7.7942    0.0000 C   0  0  0  0  0  0  0  0  0  0  0  0
   -3.0000   -7.7942    0.0000 C   0  0  0  0  0  0  0  0  0  0  0  0
   -3.7500   -9.0933    0.0000 C   0  0  0  0  0  0  0  0  0  0  0  0
   -3.0000  -10.3923    0.0000 C   0  0  0  0  0  0  0  0  0  0  0  0
   -1.5000  -10.3923    0.0000 C   0  0  0  0  0  0  0  0  0  0  0  0
  1  2  1  0
  2  3  1  0
  2  4  1  0
  4  5  1  1
  5  6  1  0
  6  7  2  0
  6  8  1  0
  8  9  1  0
  8 10  1  0
 10 11  1  0
 11 12  2  0
 12 13  1  0
 13 14  1  0
 14 15  2  0
 14 16  1  0
 16 17  1  0
 16 18  1  0
  4 19  1  0
 19 20  2  0
 19 21  1  0
 21 22  1  0
 22 23  1  1
 23 24  1  0
 24 25  1  1
 24 26  1  0
 26 27  1  1
 27 28  1  0
 28 29  2  0
 29 30  1  0
 30 31  2  0
 31 32  1  0
 32 33  2  0
 26 34  1  0
 34 35  1  0
 35 36  2  0
 35 37  1  0
 37 38  1  0
 38 39  1  0
 39 40  2  0
 40 41  1  0
 41 42  2  0
 42 43  1  0
 22 44  1  0
 44 45  1  0
 45 46  2  0
 46 47  1  0
 47 48  2  0
 48 49  1  0
 49 50  2  0
 15 11  1  0
 33 28  1  0
 43 39  1  0
 50 45  1  0
M  END
$$$$
675183
     RDKit          2D

 26 27  0  0  0  0  0  0  0  0999 V2000
    3.2010   -7.4462    0.0000 C   0  0  0  0  0  0  0  0  0  0  0  0
    3.2010   -5.9462    0.0000 C   0  0  0  0  0  0  0  0  0  0  0  0
    1.9019   -5.1962    0.0000 C   0  0  0  0  0  0  0  0  0  0  0  0
    4.5000   -5.1962    0.0000 N   0  0  0  0  0  4  0  0  0  0  0  0
    5.2500   -6.4952    0.0000 C   0  0  0  0  0  0  0  0  0  0  0  0
    3.7500   -3.8971    0.0000 C   0  0  0  0  0  0  0  0  0  0  0  0
    2.2500   -3.8971    0.0000 C   0  0  0  0  0  0  0  0  0  0  0  0
    1.5000   -2.5981    0.0000 C   0  0  0  0  0  0  0  0  0  0  0  0
    0.2010   -3.3481    0.0000 C   0  0  0  0  0  0  0  0  0  0  0  0
   -1.0981   -2.5981    0.0000 O   0  0  0  0  0  0  0  0  0  0  0  0
    0.2010   -4.8481    0.0000 N   0  0  0  0  0  0  0  0  0  0  0  0
    0.7500   -1.2990    0.0000 C   0  0  0  0  0  0  0  0  0  0  0  0
    1.5000    0.0000    0.0000 C   0  0  0  0  0  0  0  0  0  0  0  0
    0.7500    1.2990    0.0000 C   0  0  0  0  0  0  0  0  0  0  0  0
   -0.7500    1.2990    0.0000 C   0  0  0  0  0  0  0  0  0  0  0  0
   -1.5000    0.0000    0.0000 C   0  0  0  0  0  0  0  0  0  0  0  0
   -0.7500   -1.2990    0.0000 C   0  0  0  0  0  0  0  0  0  0  0  0
    2.7990   -1.8481    0.0000 C   0  0  0  0  0  0  0  0  0  0  0  0
    4.0981   -2.5981    0.0000 C   0  0  0  0  0  0  0  0  0  0  0  0
    5.3971   -1.8481    0.0000 C   0  0  0  0  0  0  0  0  0  0  0  0
    5.3971   -0.3481    0.0000 C   0  0  0  0  0  0  0  0  0  0  0  0
    4.0981    0.4019    0.0000 C   0  0  0  0  0  0  0  0  0  0  0  0
    2.7990   -0.3481    0.0000 C   0  0  0  0  0  0  0  0  0  0  0  0
    5.7990   -4.4462    0.0000 C   0  0  0  0  0  0  0  0  0  0  0  0
    7.0981   -5.1962    0.0000 C   0  0  0  0  0  0  0  0  0  0  0  0
    5.7990   -2.9462    0.0000 C   0  0  0  0  0  0  0  0  0  0  0  0
  1  2  1  0
  2  3  1  0
  2  4  1  0
  4  5  1  0
  4  6  1  0
  6  7  1  0
  7  8  1  0
  8  9  1  0
  9 10  2  0
  9 11  1  0
  8 12  1  0
 12 13  2  0
 13 14  1  0
 14 15  2  0
 15 16  1  0
 16 17  2  0
  8 18  1  0
 18 19  2  0
 19 20  1  0
 20 21  2  0
 21 22  1  0
 22 23  2  0
  4 24  1  0
 24 25  1  0
 24 26  1  0
 17 12  1  0
 23 18  1  0
M  CHG  1   4   1
M  END
$$$$
654675
     RDKit          2D

 27 29  0  0  0  0  0  0  0  0999 V2000
    8.7990   -2.9462    0.0000 C   0  0  0  0  0  0  0  0  0  0  0  0
    7.5000   -3.6962    0.0000 C   0  0  0  0  0  0  0  0  0  0  0  0
    6.2010   -2.9462    0.0000 C   0  0  0  0  0  0  0  0  0  0  0  0
    7.5000   -5.1962    0.0000 N   0  0  0  0  0  4  0  0  0  0  0  0
    9.0000   -5.1962    0.0000 C   0  0  0  0  0  0  0  0  0  0  0  0
    6.0000   -5.1962    0.0000 C   0  0  0  0  0  0  0  0  0  0  0  0
    5.2500   -3.8971    0.0000 C   0  0  0  0  0  0  0  0  0  0  0  0
    3.7500   -3.8971    0.0000 O   0  0  0  0  0  0  0  0  0  0  0  0
    3.0000   -2.5981    0.0000 C   0  0  0  0  0  0  0  0  0  0  0  0
    3.7500   -1.2990    0.0000 O   0  0  0  0  0  0  0  0  0  0  0  0
    1.5000   -2.5981    0.0000 C   0  0  0  0  0  0  0  0  0  0  0  0
    0.7500   -1.2990    0.0000 C   0  0  0  0  0  0  0  0  0  0  0  0
    1.5000    0.0000    0.0000 C   0  0  0  0  0  0  0  0  0  0  0  0
    0.7500    1.2990    0.0000 C   0  0  0  0  0  0  0  0  0  0  0  0
   -0.7500    1.2990    0.0000 C   0  0  0  0  0  0  0  0  0  0  0  0
   -1.5000    0.0000    0.0000 C   0  0  0  0  0  0  0  0  0  0  0  0
   -0.7500   -1.2990    0.0000 C   0  0  0  0  0  0  0  0  0  0  0  0
   -1.5000   -2.5981    0.0000 O   0  0  0  0  0  0  0  0  0  0  0  0
   -0.7500   -3.8971    0.0000 C   0  0  0  0  0  0  0  0  0  0  0  0
   -1.5000   -5.1962    0.0000 C   0  0  0  0  0  0  0  0  0  0  0  0
   -0.7500   -6.4952    0.0000 C   0  0  0  0  0  0  0  0  0  0  0  0
    0.7500   -6.4952    0.0000 C   0  0  0  0  0  0  0  0  0  0  0  0
    1.5000   -5.1962    0.0000 C   0  0  0  0  0  0  0  0  0  0  0  0
    0.7500   -3.8971    0.0000 C   0  0  0  0  0  0  0  0  0  0  0  0
    7.5000   -6.6962    0.0000 C   0  0  0  0  0  0  0  0  0  0  0  0
    8.7990   -7.4462    0.0000 C   0  0  0  0  0  0  0  0  0  0  0  0
    6.2010   -7.4462    0.0000 C   0  0  0  0  0  0  0  0  0  0  0  0
  1  2  1  0
  2  3  1  0
  2  4  1  0
  4  5  1  0
  4  6  1  0
  6  7  1  0
  7  8  1  0
  8  9  1  0
  9 10  2  0
  9 11  1  0
 11 12  1  0
 12 13  2  0
 13 14  1  0
 14 15  2  0
 15 16  1  0
 16 17  2  0
 17 18  1  0
 18 19  1  0
 19 20  2  0
 20 21  1  0
 21 22  2  0
 22 23  1  0
 23 24  2  0
  4 25  1  0
 25 26  1  0
 25 27  1  0
 24 11  1  0
 17 12  1  0
 24 19  1  0
M  CHG  1   4   1
M  END
$$$$
255347
     RDKit          2D

 33 37  0  0  0  0  0  0  0  0999 V2000
    3.7500   -9.0933    0.0000 C   0  0  0  0  0  0  0  0  0  0  0  0
    3.0000   -7.7942    0.0000 C   0  0  0  0  0  0  0  0  0  0  0  0
    3.7500   -6.4952    0.0000 C   0  0  0  0  0  0  0  0  0  0  0  0
    1.5000   -7.7942    0.0000 N   0  0  0  0  0  0  0  0  0  0  0  0
    0.7500   -6.4952    0.0000 C   0  0  0  0  0  0  0  0  0  0  0  0
    1.5000   -5.1962    0.0000 C   0  0  0  0  0  0  0  0  0  0  0  0
    0.7500   -3.8971    0.0000 C   0  0  0  0  0  0  0  0  0  0  0  0
    1.5000   -2.5981    0.0000 N   0  0  0  0  0  0  0  0  0  0  0  0
    3.0000   -2.5981    0.0000 C   0  0  0  0  0  0  0  0  0  0  0  0
    3.7500   -3.8971    0.0000 C   0  0  0  0  0  0  0  0  0  0  0  0
    5.2500   -3.8971    0.0000 C   0  0  0  0  0  0  0  0  0  0  0  0
    6.0000   -2.5981    0.0000 C   0  0  0  0  0  0  0  0  0  0  0  0
    7.5000   -2.5981    0.0000 Cl  0  0  0  0  0  0  0  0  0  0  0  0
    5.2500   -1.2990    0.0000 C   0  0  0  0  0  0  0  0  0  0  0  0
    3.7500   -1.2990    0.0000 C   0  0  0  0  0  0  0  0  0  0  0  0
    0.7500   -1.2990    0.0000 C   0  0  0  0  0  0  0  0  0  0  0  0
    1.5000    0.0000    0.0000 C   0  0  0  0  0  0  0  0  0  0  0  0
    0.7500    1.2990    0.0000 C   0  0  0  0  0  0  0  0  0  0  0  0
   -0.7500    1.2990    0.0000 C   0  0  0  0  0  0  0  0  0  0  0  0
   -1.5000    0.0000    0.0000 C   0  0  0  0  0  0  0  0  0  0  0  0
   -0.7500   -1.2990    0.0000 C   0  0  0  0  0  0  0  0  0  0  0  0
   -1.5000   -2.5981    0.0000 N   0  0  0  0  0  0  0  0  0  0  0  0
   -0.7500   -3.8971    0.0000 C   0  0  0  0  0  0  0  0  0  0  0  0
   -1.5000   -5.1962    0.0000 C   0  0  0  0  0  0  0  0  0  0  0  0
   -0.7500   -6.4952    0.0000 C   0  0  0  0  0  0  0  0  0  0  0  0
   -1.5000   -7.7942    0.0000 N   0  0  0  0  0  0  0  0  0  0  0  0
   -3.0000   -7.7942    0.0000 C   0  0  0  0  0  0  0  0  0  0  0  0
   -3.7500   -6.4952    0.0000 C   0  0  0  0  0  0  0  0  0  0  0  0
   -5.2500   -6.4952    0.0000 C   0  0  0  0  0  0  0  0  0  0  0  0
   -6.0000   -7.7942    0.0000 C   0  0  0  0  0  0  0  0  0  0  0  0
   -7.5000   -7.7942    0.0000 Cl  0  0  0  0  0  0  0  0  0  0  0  0
   -5.2500   -9.0933    0.0000 C   0  0  0  0  0  0  0  0  0  0  0  0
   -3.7500   -9.0933    0.0000 C   0  0  0  0  0  0  0  0  0  0  0  0
  1  2  1  0
  2  3  1  0
  2  4  1  0
  4  5  2  0
  5  6  1  0
  6  7  2  0
  7  8  1  0
  8  9  1  0
  9 10  2  0
 10 11  1  0
 11 12  2  0
 12 13  1  0
 12 14  1  0
 14 15  2  0
  8 16  1  0
 16 17  2  0
 17 18  1  0
 18 19  2  0
 19 20  1  0
 20 21  2  0
 21 22  1  0
 22 23  2  0
 23 24  1  0
 24 25  2  0
 25 26  1  0
 26 27  1  0
 27 28  2  0
 28 29  1  0
 29 30  2  0
 30 31  1  0
 30 32  1  0
 32 33  2  0
 25  5  1  0
 23  7  1  0
 15  9  1  0
 21 16  1  0
 33 27  1  0
M  END
$$$$
675224
     RDKit          2D

 24 26  0  0  0  0  0  0  0  0999 V2000
   -3.7527    6.6955    0.0000 C   0  0  0  0  0  0  0  0  0  0  0  0
   -2.6380    5.6918    0.0000 C   0  0  0  0  0  0  0  0  0  0  0  0
   -2.9499    4.2246    0.0000 C   0  0  0  0  0  0  0  0  0  0  0  0
   -1.8351    3.2209    0.0000 C   0  0  0  0  0  0  0  0  0  0  0  0
   -0.4086    3.6844    0.0000 C   0  0  0  0  0  0  0  0  0  0  0  0
    0.7062    2.6807    0.0000 C   0  0  0  0  0  0  0  0  0  0  0  0
    0.3943    1.2135    0.0000 C   0  0  0  0  0  0  0  0  0  0  0  0
    1.2760    0.0000    0.0000 O   0  0  0  0  0  0  0  0  0  0  0  0
    0.3943   -1.2135    0.0000 C   0  0  0  0  0  0  0  0  0  0  0  0
   -1.0323   -0.7500    0.0000 O   0  0  0  0  0  0  0  0  0  0  0  0
   -1.0323    0.7500    0.0000 C   0  0  0  0  0  0  0  0  0  0  0  0
   -2.1470    1.7537    0.0000 C   0  0  0  0  0  0  0  0  0  0  0  0
   -1.2114    6.1554    0.0000 N   0  0  0  0  0  0  0  0  0  0  0  0
   -0.8995    7.6226    0.0000 C   0  0  0  0  0  0  0  0  0  0  0  0
    0.5271    8.0861    0.0000 C   0  0  0  0  0  0  0  0  0  0  0  0
    1.6418    7.0824    0.0000 O   0  0  0  0  0  0  0  0  0  0  0  0
    0.8389    9.5533    0.0000 C   0  0  0  0  0  0  0  0  0  0  0  0
    2.2655   10.0169    0.0000 C   0  0  0  0  0  0  0  0  0  0  0  0
    2.5774   11.4841    0.0000 C   0  0  0  0  0  0  0  0  0  0  0  0
    1.4627   12.4878    0.0000 C   0  0  0  0  0  0  0  0  0  0  0  0
    1.7745   13.9550    0.0000 O   0  0  0  0  0  0  0  0  0  0  0  0
    0.0361   12.0242    0.0000 C   0  0  0  0  0  0  0  0  0  0  0  0
   -1.0786   13.0279    0.0000 O   0  0  0  0  0  0  0  0  0  0  0  0
   -0.2758   10.5570    0.0000 C   0  0  0  0  0  0  0  0  0  0  0  0
  1  2  1  0
  2  3  1  0
  3  4  1  0
  4  5  2  0
  5  6  1  0
  6  7  2  0
  7  8  1  0
  8  9  1  0
  9 10  1  0
 10 11  1  0
 11 12  2  0
  2 13  1  0
 13 14  1  0
 14 15  1  0
 15 16  1  0
 15 17  1  0
 17 18  2  0
 18 19  1  0
 19 20  2  0
 20 21  1  0
 20 22  1  0
 22 23  1  0
 22 24  2  0
 12  4  1  0
 11  7  1  0
 24 17  1  0
M  END
$$$$
1785
     RDKit          2D

 24 25  0  0  0  0  0  0  0  0999 V2000
    0.7500   -6.4952    0.0000 C   0  0  0  0  0  0  0  0  0  0  0  0
    1.5000   -5.1962    0.0000 C   0  0  0  0  0  0  0  0  0  0  0  0
    0.7500   -3.8971    0.0000 C   0  0  0  0  0  0  0  0  0  0  0  0
    1.5000   -2.5981    0.0000 C   0  0  0  0  0  0  0  0  0  0  0  0
    0.7500   -1.2990    0.0000 C   0  0  0  0  0  0  0  0  0  0  0  0
    1.5000    0.0000    0.0000 C   0  0  0  0  0  0  0  0  0  0  0  0
    0.7500    1.2990    0.0000 C   0  0  0  0  0  0  0  0  0  0  0  0
   -0.7500    1.2990    0.0000 C   0  0  0  0  0  0  0  0  0  0  0  0
   -1.5000    0.0000    0.0000 C   0  0  0  0  0  0  0  0  0  0  0  0
   -0.7500   -1.2990    0.0000 C   0  0  0  0  0  0  0  0  0  0  0  0
    3.0000   -5.1962    0.0000 N   0  0  0  0  0  0  0  0  0  0  0  0
    3.7500   -6.4952    0.0000 C   0  0  0  0  0  0  0  0  0  0  0  0
    5.2500   -6.4952    0.0000 C   0  0  0  0  0  0  0  0  0  0  0  0
    6.0000   -5.1962    0.0000 O   0  0  0  0  0  0  0  0  0  0  0  0
    6.0000   -7.7942    0.0000 C   0  0  0  0  0  0  0  0  0  0  0  0
    5.2500   -9.0933    0.0000 C   0  0  0  0  0  0  0  0  0  0  0  0
    6.0000  -10.3923    0.0000 C   0  0  0  0  0  0  0  0  0  0  0  0
    7.5000  -10.3923    0.0000 C   0  0  0  0  0  0  0  0  0  0  0  0
    8.2500  -11.6913    0.0000 O   0  0  0  0  0  0  0  0  0  0  0  0
    8.2500   -9.0933    0.0000 C   0  0  0  0  0  0  0  0  0  0  0  0
    7.5000   -7.7942    0.0000 C   0  0  0  0  0  0  0  0  0  0  0  0
    9.7500   -9.0933    0.0000 C   0  0  0  0  0  0  0  0  0  0  0  0
   10.5000  -10.3923    0.0000 O   0  0  0  0  0  0  0  0  0  0  0  0
   10.5000   -7.7942    0.0000 N   0  0  0  0  0  0  0  0  0  0  0  0
  1  2  1  0
  2  3  1  0
  3  4  1  0
  4  5  1  0
  5  6  2  0
  6  7  1  0
  7  8  2  0
  8  9  1  0
  9 10  2  0
  2 11  1  0
 11 12  1  0
 12 13  1  0
 13 14  1  0
 13 15  1  0
 15 16  2  0
 16 17  1  0
 17 18  2  0
 18 19  1  0
 18 20  1  0
 20 21  2  0
 20 22  1  0
 22 23  2  0
 22 24  1  0
 10  5  1  0
 21 15  1  0
M  END
$$$$
27385
     RDKit          2D

 22 24  0  0  0  0  0  0  0  0999 V2000
    5.6303   -2.9038    0.0000 C   0  0  0  0  0  0  0  0  0  0  0  0
    4.1679   -3.2376    0.0000 C   0  0  0  0  0  0  0  0  0  0  0  0
    3.7258   -4.6709    0.0000 C   0  0  0  0  0  0  0  0  0  0  0  0
    4.7460   -5.7705    0.0000 N   0  0  0  0  0  0  0  0  0  0  0  0
    4.3039   -7.2039    0.0000 C   0  0  0  0  0  0  0  0  0  0  0  0
    6.2084   -5.4367    0.0000 C   0  0  0  0  0  0  0  0  0  0  0  0
    3.1476   -2.1380    0.0000 C   0  0  0  0  0  0  0  0  0  0  0  0
    1.6852   -2.4718    0.0000 N   0  0  0  0  0  0  0  0  0  0  0  0
    0.7500   -1.2990    0.0000 C   0  0  0  0  0  0  0  0  0  0  0  0
    1.5000    0.0000    0.0000 C   0  0  0  0  0  0  0  0  0  0  0  0
    0.7500    1.2990    0.0000 C   0  0  0  0  0  0  0  0  0  0  0  0
   -0.7500    1.2990    0.0000 C   0  0  0  0  0  0  0  0  0  0  0  0
   -1.5000    0.0000    0.0000 C   0  0  0  0  0  0  0  0  0  0  0  0
   -0.7500   -1.2990    0.0000 C   0  0  0  0  0  0  0  0  0  0  0  0
   -1.6852   -2.4718    0.0000 C   0  0  0  0  0  0  0  0  0  0  0  0
   -1.3515   -3.9342    0.0000 C   0  0  0  0  0  0  0  0  0  0  0  0
   -0.0000   -4.5850    0.0000 C   0  0  0  0  0  0  0  0  0  0  0  0
   -0.1121   -6.0808    0.0000 C   0  0  0  0  0  0  0  0  0  0  0  0
    1.1273   -6.9258    0.0000 C   0  0  0  0  0  0  0  0  0  0  0  0
    2.4787   -6.2750    0.0000 C   0  0  0  0  0  0  0  0  0  0  0  0
    2.5908   -4.7792    0.0000 C   0  0  0  0  0  0  0  0  0  0  0  0
    1.3515   -3.9342    0.0000 C   0  0  0  0  0  0  0  0  0  0  0  0
  1  2  1  0
  2  3  1  0
  3  4  1  0
  4  5  1  0
  4  6  1  0
  2  7  1  0
  7  8  1  0
  8  9  1  0
  9 10  2  0
 10 11  1  0
 11 12  2  0
 12 13  1  0
 13 14  2  0
 14 15  1  0
 15 16  1  0
 16 17  1  0
 17 18  2  0
 18 19  1  0
 19 20  2  0
 20 21  1  0
 21 22  2  0
 22  8  1  0
 14  9  1  0
 22 17  1  0
M  END
$$$$
674899
     RDKit          2D

 30 31  0  0  0  0  0  0  0  0999 V2000
    5.6303   -2.9038    0.0000 C   0  0  0  0  0  0  0  0  0  0  0  0
    4.1679   -3.2376    0.0000 C   0  0  0  0  0  0  0  0  0  0  0  0
    3.7258   -4.6709    0.0000 C   0  0  0  0  0  0  0  0  0  0  0  0
    4.7460   -5.7705    0.0000 N   0  0  0  0  0  0  0  0  0  0  0  0
    4.3039   -7.2039    0.0000 C   0  0  0  0  0  0  0  0  0  0  0  0
    6.2084   -5.4367    0.0000 C   0  0  0  0  0  0  0  0  0  0  0  0
    3.1476   -2.1380    0.0000 C   0  0  0  0  0  0  0  0  0  0  0  0
    1.6852   -2.4718    0.0000 N   0  0  0  0  0  0  0  0  0  0  0  0
    0.7500   -1.2990    0.0000 C   0  0  0  0  0  0  0  0  0  0  0  0
    1.5000    0.0000    0.0000 C   0  0  0  0  0  0  0  0  0  0  0  0
    0.7500    1.2990    0.0000 C   0  0  0  0  0  0  0  0  0  0  0  0
   -0.7500    1.2990    0.0000 C   0  0  0  0  0  0  0  0  0  0  0  0
   -1.5000    0.0000    0.0000 C   0  0  0  0  0  0  0  0  0  0  0  0
   -0.7500   -1.2990    0.0000 C   0  0  0  0  0  0  0  0  0  0  0  0
   -1.6852   -2.4718    0.0000 C   0  0  0  0  0  0  0  0  0  0  0  0
   -1.3515   -3.9342    0.0000 C   0  0  0  0  0  0  0  0  0  0  0  0
   -0.0000   -4.5850    0.0000 C   0  0  0  0  0  0  0  0  0  0  0  0
   -0.1121   -6.0808    0.0000 C   0  0  0  0  0  0  0  0  0  0  0  0
    1.1273   -6.9258    0.0000 C   0  0  0  0  0  0  0  0  0  0  0  0
    2.4787   -6.2750    0.0000 C   0  0  0  0  0  0  0  0  0  0  0  0
    2.5908   -4.7792    0.0000 C   0  0  0  0  0  0  0  0  0  0  0  0
    1.3515   -3.9342    0.0000 C   0  0  0  0  0  0  0  0  0  0  0  0
    7.2084   -1.2990    0.0000 O   0  0  0  0  0  0  0  0  0  0  0  0
    8.7084   -1.2990    0.0000 C   0  0  0  0  0  0  0  0  0  0  0  0
    9.4584   -2.5981    0.0000 O   0  0  0  0  0  0  0  0  0  0  0  0
    9.4584    0.0000    0.0000 C   0  0  0  0  0  0  0  0  0  0  0  0
   10.9584    0.0000    0.0000 C   0  0  0  0  0  0  0  0  0  0  0  0
   11.7084   -1.2990    0.0000 C   0  0  0  0  0  0  0  0  0  0  0  0
   10.9584   -2.5981    0.0000 O   0  0  0  0  0  0  0  0  0  0  0  0
   13.2084   -1.2990    0.0000 O   0  0  0  0  0  0  0  0  0  0  0  0
  1  2  1  0
  2  3  1  0
  3  4  1  0
  4  5  1  0
  4  6  1  0
  2  7  1  0
  7  8  1  0
  8  9  1  0
  9 10  2  0
 10 11  1  0
 11 12  2  0
 12 13  1  0
 13 14  2  0
 14 15  1  0
 15 16  1  0
 16 17  1  0
 17 18  2  0
 18 19  1  0
 19 20  2  0
 20 21  1  0
 21 22  2  0
 23 24  1  0
 24 25  2  0
 24 26  1  0
 26 27  2  0
 27 28  1  0
 28 29  2  0
 28 30  1  0
 22  8  1  0
 14  9  1  0
 22 17  1  0
M  END
$$$$
57833
     RDKit          2D

 21 23  0  0  0  0  0  0  0  0999 V2000
    5.2500   -3.8971    0.0000 C   0  0  0  0  0  0  0  0  0  0  0  0
    3.7500   -3.8971    0.0000 C   0  0  0  0  0  0  0  0  0  0  0  0
    3.0000   -5.1962    0.0000 C   0  0  0  0  0  0  0  0  0  0  0  0
    3.7500   -6.4952    0.0000 N   0  0  0  0  0  0  0  0  0  0  0  0
    3.0000   -7.7942    0.0000 C   0  0  0  0  0  0  0  0  0  0  0  0
    5.2500   -6.4952    0.0000 C   0  0  0  0  0  0  0  0  0  0  0  0
    3.0000   -2.5981    0.0000 C   0  0  0  0  0  0  0  0  0  0  0  0
    1.5000   -2.5981    0.0000 N   0  0  0  0  0  0  0  0  0  0  0  0
    0.7500   -1.2990    0.0000 C   0  0  0  0  0  0  0  0  0  0  0  0
    1.5000    0.0000    0.0000 C   0  0  0  0  0  0  0  0  0  0  0  0
    0.7500    1.2990    0.0000 C   0  0  0  0  0  0  0  0  0  0  0  0
   -0.7500    1.2990    0.0000 C   0  0  0  0  0  0  0  0  0  0  0  0
   -1.5000    0.0000    0.0000 C   0  0  0  0  0  0  0  0  0  0  0  0
   -0.7500   -1.2990    0.0000 C   0  0  0  0  0  0  0  0  0  0  0  0
   -1.5000   -2.5981    0.0000 S   0  0  0  0  0  0  0  0  0  0  0  0
   -0.7500   -3.8971    0.0000 C   0  0  0  0  0  0  0  0  0  0  0  0
   -1.5000   -5.1962    0.0000 C   0  0  0  0  0  0  0  0  0  0  0  0
   -0.7500   -6.4952    0.0000 C   0  0  0  0  0  0  0  0  0  0  0  0
    0.7500   -6.4952    0.0000 C   0  0  0  0  0  0  0  0  0  0  0  0
    1.5000   -5.1962    0.0000 C   0  0  0  0  0  0  0  0  0  0  0  0
    0.7500   -3.8971    0.0000 C   0  0  0  0  0  0  0  0  0  0  0  0
  1  2  1  0
  2  3  1  0
  3  4  1  0
  4  5  1  0
  4  6  1  0
  2  7  1  0
  7  8  1  0
  8  9  1  0
  9 10  2  0
 10 11  1  0
 11 12  2  0
 12 13  1  0
 13 14  2  0
 14 15  1  0
 15 16  1  0
 16 17  2  0
 17 18  1  0
 18 19  2  0
 19 20  1  0
 20 21  2  0
 21  8  1  0
 14  9  1  0
 21 16  1  0
M  END
$$$$
1093813
     RDKit          2D

 31 32  0  0  0  0  0  0  0  0999 V2000
    5.2500   -3.8971    0.0000 C   0  0  0  0  0  0  0  0  0  0  0  0
    3.7500   -3.8971    0.0000 C   0  0  0  0  0  0  0  0  0  0  0  0
    3.0000   -5.1962    0.0000 C   0  0  0  0  0  0  0  0  0  0  0  0
    3.7500   -6.4952    0.0000 N   0  0  0  0  0  0  0  0  0  0  0  0
    3.0000   -7.7942    0.0000 C   0  0  0  0  0  0  0  0  0  0  0  0
    5.2500   -6.4952    0.0000 C   0  0  0  0  0  0  0  0  0  0  0  0
    3.0000   -2.5981    0.0000 C   0  0  0  0  0  0  0  0  0  0  0  0
    1.5000   -2.5981    0.0000 N   0  0  0  0  0  0  0  0  0  0  0  0
    0.7500   -1.2990    0.0000 C   0  0  0  0  0  0  0  0  0  0  0  0
    1.5000    0.0000    0.0000 C   0  0  0  0  0  0  0  0  0  0  0  0
    0.7500    1.2990    0.0000 C   0  0  0  0  0  0  0  0  0  0  0  0
   -0.7500    1.2990    0.0000 C   0  0  0  0  0  0  0  0  0  0  0  0
   -1.5000    0.0000    0.0000 C   0  0  0  0  0  0  0  0  0  0  0  0
   -0.7500   -1.2990    0.0000 C   0  0  0  0  0  0  0  0  0  0  0  0
   -1.5000   -2.5981    0.0000 S   0  0  0  0  0  0  0  0  0  0  0  0
   -0.7500   -3.8971    0.0000 C   0  0  0  0  0  0  0  0  0  0  0  0
   -1.5000   -5.1962    0.0000 C   0  0  0  0  0  0  0  0  0  0  0  0
   -0.7500   -6.4952    0.0000 C   0  0  0  0  0  0  0  0  0  0  0  0
    0.7500   -6.4952    0.0000 C   0  0  0  0  0  0  0  0  0  0  0  0
    1.5000   -5.1962    0.0000 C   0  0  0  0  0  0  0  0  0  0  0  0
    0.7500   -3.8971    0.0000 C   0  0  0  0  0  0  0  0  0  0  0  0
    8.8481   -1.5000    0.0000 O   0  0  0  0  0  0  0  0  0  0  0  0
    8.8481    0.0000    0.0000 C   0  0  0  0  0  0  0  0  0  0  0  0
   10.1471    0.7500    0.0000 C   0  0  0  0  0  0  0  0  0  0  0  0
   10.1471    2.2500    0.0000 O   0  0  0  0  0  0  0  0  0  0  0  0
   11.4462   -0.0000    0.0000 C   0  0  0  0  0  0  0  0  0  0  0  0
   11.4462   -1.5000    0.0000 O   0  0  0  0  0  0  0  0  0  0  0  0
   12.7452    0.7500    0.0000 O   0  0  0  0  0  0  0  0  0  0  0  0
    7.5490    0.7500    0.0000 C   0  0  0  0  0  0  0  0  0  0  0  0
    7.5490    2.2500    0.0000 O   0  0  0  0  0  0  0  0  0  0  0  0
    6.2500    0.0000    0.0000 O   0  0  0  0  0  0  0  0  0  0  0  0
  1  2  1  0
  2  3  1  0
  3  4  1  0
  4  5  1  0
  4  6  1  0
  2  7  1  0
  7  8  1  0
  8  9  1  0
  9 10  2  0
 10 11  1  0
 11 12  2  0
 12 13  1  0
 13 14  2  0
 14 15  1  0
 15 16  1  0
 16 17  2  0
 17 18  1  0
 18 19  2  0
 19 20  1  0
 20 21  2  0
 22 23  1  0
 23 24  1  0
 24 25  1  0
 24 26  1  0
 26 27  2  0
 26 28  1  0
 23 29  1  0
 29 30  2  0
 29 31  1  0
 21  8  1  0
 14  9  1  0
 21 16  1  0
M  END
$$$$
27368
     RDKit          2D

 20 22  0  0  0  0  0  0  0  0999 V2000
    3.0000   -5.1962    0.0000 C   0  0  0  0  0  0  0  0  0  0  0  0
    3.7500   -3.8971    0.0000 C   0  0  0  0  0  0  0  0  0  0  0  0
    3.0000   -2.5981    0.0000 C   0  0  0  0  0  0  0  0  0  0  0  0
    1.5000   -2.5981    0.0000 N   0  0  0  0  0  0  0  0  0  0  0  0
    0.7500   -1.2990    0.0000 C   0  0  0  0  0  0  0  0  0  0  0  0
    1.5000    0.0000    0.0000 C   0  0  0  0  0  0  0  0  0  0  0  0
    0.7500    1.2990    0.0000 C   0  0  0  0  0  0  0  0  0  0  0  0
   -0.7500    1.2990    0.0000 C   0  0  0  0  0  0  0  0  0  0  0  0
   -1.5000    0.0000    0.0000 C   0  0  0  0  0  0  0  0  0  0  0  0
   -0.7500   -1.2990    0.0000 C   0  0  0  0  0  0  0  0  0  0  0  0
   -1.5000   -2.5981    0.0000 S   0  0  0  0  0  0  0  0  0  0  0  0
   -0.7500   -3.8971    0.0000 C   0  0  0  0  0  0  0  0  0  0  0  0
   -1.5000   -5.1962    0.0000 C   0  0  0  0  0  0  0  0  0  0  0  0
   -0.7500   -6.4952    0.0000 C   0  0  0  0  0  0  0  0  0  0  0  0
    0.7500   -6.4952    0.0000 C   0  0  0  0  0  0  0  0  0  0  0  0
    1.5000   -5.1962    0.0000 C   0  0  0  0  0  0  0  0  0  0  0  0
    0.7500   -3.8971    0.0000 C   0  0  0  0  0  0  0  0  0  0  0  0
    5.2500   -3.8971    0.0000 N   0  0  0  0  0  0  0  0  0  0  0  0
    6.0000   -5.1962    0.0000 C   0  0  0  0  0  0  0  0  0  0  0  0
    6.0000   -2.5981    0.0000 C   0  0  0  0  0  0  0  0  0  0  0  0
  1  2  1  0
  2  3  1  0
  3  4  1  0
  4  5  1  0
  5  6  2  0
  6  7  1  0
  7  8  2  0
  8  9  1  0
  9 10  2  0
 10 11  1  0
 11 12  1  0
 12 13  2  0
 13 14  1  0
 14 15  2  0
 15 16  1  0
 16 17  2  0
  2 18  1  0
 18 19  1  0
 18 20  1  0
 17  4  1  0
 10  5  1  0
 17 12  1  0
M  END
$$$$
41434
     RDKit          2D

 21 22  0  0  0  0  0  0  0  0999 V2000
    0.7500   -6.4952    0.0000 C   0  0  0  0  0  0  0  0  0  0  0  0
    1.5000   -5.1962    0.0000 C   0  0  0  0  0  0  0  0  0  0  0  0
    0.7500   -3.8971    0.0000 C   0  0  0  0  0  0  0  0  0  0  0  0
    1.5000   -2.5981    0.0000 O   0  0  0  0  0  0  0  0  0  0  0  0
    0.7500   -1.2990    0.0000 C   0  0  0  0  0  0  0  0  0  0  0  0
    1.5000    0.0000    0.0000 C   0  0  0  0  0  0  0  0  0  0  0  0
    0.7500    1.2990    0.0000 C   0  0  0  0  0  0  0  0  0  0  0  0
   -0.7500    1.2990    0.0000 C   0  0  0  0  0  0  0  0  0  0  0  0
   -1.5000    0.0000    0.0000 C   0  0  0  0  0  0  0  0  0  0  0  0
   -0.7500   -1.2990    0.0000 C   0  0  0  0  0  0  0  0  0  0  0  0
    3.0000   -5.1962    0.0000 N   0  0  0  0  0  0  0  0  0  0  0  0
    3.7500   -3.8971    0.0000 C   0  0  0  0  0  0  0  0  0  0  0  0
    5.2500   -3.8971    0.0000 C   0  0  0  0  0  0  0  0  0  0  0  0
    6.0000   -2.5981    0.0000 Cl  0  0  0  0  0  0  0  0  0  0  0  0
    3.7500   -6.4952    0.0000 C   0  0  0  0  0  0  0  0  0  0  0  0
    5.2500   -6.4952    0.0000 C   0  0  0  0  0  0  0  0  0  0  0  0
    6.0000   -7.7942    0.0000 C   0  0  0  0  0  0  0  0  0  0  0  0
    7.5000   -7.7942    0.0000 C   0  0  0  0  0  0  0  0  0  0  0  0
    8.2500   -6.4952    0.0000 C   0  0  0  0  0  0  0  0  0  0  0  0
    7.5000   -5.1962    0.0000 C   0  0  0  0  0  0  0  0  0  0  0  0
    6.0000   -5.1962    0.0000 C   0  0  0  0  0  0  0  0  0  0  0  0
  1  2  1  0
  2  3  1  0
  3  4  1  0
  4  5  1  0
  5  6  2  0
  6  7  1  0
  7  8  2  0
  8  9  1  0
  9 10  2  0
  2 11  1  0
 11 12  1  0
 12 13  1  0
 13 14  1  0
 11 15  1  0
 15 16  1  0
 16 17  2  0
 17 18  1  0
 18 19  2  0
 19 20  1  0
 20 21  2  0
 10  5  1  0
 21 16  1  0
M  END
$$$$
406520
     RDKit          2D

 11 10  0  0  0  0  0  0  0  0999 V2000
    0.0000    0.0000    0.0000 C   0  0  0  0  0  0  0  0  0  0  0  0
    1.2990    0.7500    0.0000 C   0  0  0  0  0  0  0  0  0  0  0  0
    2.5981   -0.0000    0.0000 C   0  0  0  0  0  0  0  0  0  0  0  0
    3.8971    0.7500    0.0000 N   0  0  0  0  0  4  0  0  0  0  0  0
    4.6471   -0.5490    0.0000 C   0  0  0  0  0  0  0  0  0  0  0  0
    3.1471    2.0490    0.0000 C   0  0  0  0  0  0  0  0  0  0  0  0
    5.1962    1.5000    0.0000 C   0  0  0  0  0  0  0  0  0  0  0  0
    1.2990    2.2500    0.0000 O   0  0  0  0  0  0  0  0  0  0  0  0
    0.0000    3.0000    0.0000 C   0  0  0  0  0  0  0  0  0  0  0  0
   -1.2990    2.2500    0.0000 O   0  0  0  0  0  0  0  0  0  0  0  0
   -0.0000    4.5000    0.0000 N   0  0  0  0  0  0  0  0  0  0  0  0
  1  2  1  0
  2  3  1  0
  3  4  1  0
  4  5  1  0
  4  6  1  0
  4  7  1  0
  2  8  1  0
  8  9  1  0
  9 10  2  0
  9 11  1  0
M  CHG  1   4   1
M  END
$$$$
9217
     RDKit          2D

 16 17  0  0  0  0  0  0  0  0999 V2000
   -1.2990   -5.8573    0.0000 C   0  0  0  0  0  0  0  0  0  0  0  0
   -0.0000   -5.1073    0.0000 C   0  0  0  0  0  0  0  0  0  0  0  0
    1.2990   -5.8573    0.0000 N   0  0  0  0  0  0  0  0  0  0  0  0
    2.5981   -5.1073    0.0000 O   0  0  0  0  0  0  0  0  0  0  0  0
    1.2990   -7.3573    0.0000 C   0  0  0  0  0  0  0  0  0  0  0  0
    0.0000   -8.1073    0.0000 O   0  0  0  0  0  0  0  0  0  0  0  0
    2.5981   -8.1073    0.0000 N   0  0  0  0  0  0  0  0  0  0  0  0
   -0.0000   -3.6073    0.0000 C   0  0  0  0  0  0  0  0  0  0  0  0
    1.2135   -2.7256    0.0000 C   0  0  0  0  0  0  0  0  0  0  0  0
    0.7500   -1.2990    0.0000 C   0  0  0  0  0  0  0  0  0  0  0  0
    1.5000    0.0000    0.0000 C   0  0  0  0  0  0  0  0  0  0  0  0
    0.7500    1.2990    0.0000 C   0  0  0  0  0  0  0  0  0  0  0  0
   -0.7500    1.2990    0.0000 C   0  0  0  0  0  0  0  0  0  0  0  0
   -1.5000    0.0000    0.0000 C   0  0  0  0  0  0  0  0  0  0  0  0
   -0.7500   -1.2990    0.0000 C   0  0  0  0  0  0  0  0  0  0  0  0
   -1.2135   -2.7256    0.0000 S   0  0  0  0  0  0  0  0  0  0  0  0
  1  2  1  0
  2  3  1  0
  3  4  1  0
  3  5  1  0
  5  6  2  0
  5  7  1  0
  2  8  1  0
  8  9  2  0
  9 10  1  0
 10 11  2  0
 11 12  1  0
 12 13  2  0
 13 14  1  0
 14 15  2  0
 15 16  1  0
 16  8  1  0
 15 10  1  0
M  END
$$$$
583520
     RDKit          2D

 14 14  0  0  0  0  0  0  0  0999 V2000
    6.0000   -2.5981    0.0000 C   0  0  0  0  0  0  0  0  0  0  0  0
    5.2500   -1.2990    0.0000 C   0  0  0  0  0  0  0  0  0  0  0  0
    6.0000    0.0000    0.0000 N   0  0  0  0  0  0  0  0  0  0  0  0
    3.7500   -1.2990    0.0000 C   0  0  0  0  0  0  0  0  0  0  0  0
    3.0000   -2.5981    0.0000 O   0  0  0  0  0  0  0  0  0  0  0  0
    3.0000    0.0000    0.0000 N   0  0  0  0  0  0  0  0  0  0  0  0
    1.5000    0.0000    0.0000 C   0  0  0  0  0  0  0  0  0  0  0  0
    0.7500   -1.2990    0.0000 C   0  0  0  0  0  0  0  0  0  0  0  0
    1.5000   -2.5981    0.0000 C   0  0  0  0  0  0  0  0  0  0  0  0
   -0.7500   -1.2990    0.0000 C   0  0  0  0  0  0  0  0  0  0  0  0
   -1.5000    0.0000    0.0000 C   0  0  0  0  0  0  0  0  0  0  0  0
   -0.7500    1.2990    0.0000 C   0  0  0  0  0  0  0  0  0  0  0  0
    0.7500    1.2990    0.0000 C   0  0  0  0  0  0  0  0  0  0  0  0
    1.5000    2.5981    0.0000 C   0  0  0  0  0  0  0  0  0  0  0  0
  1  2  1  0
  2  3  1  0
  2  4  1  0
  4  5  2  0
  4  6  1  0
  6  7  1  0
  7  8  2  0
  8  9  1  0
  8 10  1  0
 10 11  2  0
 11 12  1  0
 12 13  2  0
 13 14  1  0
 13  7  1  0
M  END
$$$$
94091
     RDKit          2D

 11 11  0  0  0  0  0  0  0  0999 V2000
    5.2500   -1.2990    0.0000 C   0  0  0  0  0  0  0  0  0  0  0  0
    3.7500   -1.2990    0.0000 C   0  0  0  0  0  0  0  0  0  0  0  0
    3.0000   -2.5981    0.0000 N   0  0  0  0  0  0  0  0  0  0  0  0
    3.0000    0.0000    0.0000 C   0  0  0  0  0  0  0  0  0  0  0  0
    3.7500    1.2990    0.0000 O   0  0  0  0  0  0  0  0  0  0  0  0
    1.5000    0.0000    0.0000 C   0  0  0  0  0  0  0  0  0  0  0  0
    0.7500   -1.2990    0.0000 C   0  0  0  0  0  0  0  0  0  0  0  0
   -0.7500   -1.2990    0.0000 C   0  0  0  0  0  0  0  0  0  0  0  0
   -1.5000    0.0000    0.0000 C   0  0  0  0  0  0  0  0  0  0  0  0
   -0.7500    1.2990    0.0000 C   0  0  0  0  0  0  0  0  0  0  0  0
    0.7500    1.2990    0.0000 C   0  0  0  0  0  0  0  0  0  0  0  0
  1  2  1  0
  2  3  1  0
  2  4  1  0
  4  5  1  0
  4  6  1  0
  6  7  2  0
  7  8  1  0
  8  9  2  0
  9 10  1  0
 10 11  2  0
 11  6  1  0
M  END
$$$$
93858
     RDKit          2D

 13 15  0  0  0  0  0  0  0  0999 V2000
    0.7500   -3.8971    0.0000 C   0  0  0  0  0  0  0  0  0  0  0  0
    1.5000   -2.5981    0.0000 C   0  0  0  0  0  0  0  0  0  0  0  0
    3.0000   -2.5981    0.0000 N   0  0  0  0  0  0  0  0  0  0  0  0
    0.7500   -1.2990    0.0000 C   0  0  0  0  0  0  0  0  0  0  0  0
    1.5000    0.0000    0.0000 C   0  0  0  0  0  0  0  0  0  0  0  0
    0.7500    1.2990    0.0000 C   0  0  0  0  0  0  0  0  0  0  0  0
   -0.7500    1.2990    0.0000 C   0  0  0  0  0  0  0  0  0  0  0  0
   -1.5000    0.0000    0.0000 C   0  0  0  0  0  0  0  0  0  0  0  0
    1.7010   -0.7500    0.0000 C   0  0  0  0  0  0  0  0  0  0  0  0
    3.0000   -0.0000    0.0000 C   0  0  0  0  0  0  0  0  0  0  0  0
    2.2500    1.2990    0.0000 C   0  0  0  0  0  0  0  0  0  0  0  0
    2.2500   -1.2990    0.0000 C   0  0  0  0  0  0  0  0  0  0  0  0
   -0.7500   -1.2990    0.0000 C   0  0  0  0  0  0  0  0  0  0  0  0
  1  2  1  0
  2  3  1  0
  2  4  1  0
  4  5  1  0
  5  6  1  0
  6  7  1  0
  7  8  1  0
  8  9  1  0
  9 10  1  0
 10 11  1  0
 10 12  1  0
  8 13  1  0
 12  4  1  0
 13  4  1  0
 11  6  1  0
M  END
$$$$
543
     RDKit          2D

 10 10  0  0  0  0  0  0  0  0999 V2000
    5.2500   -1.2990    0.0000 C   0  0  0  0  0  0  0  0  0  0  0  0
    3.7500   -1.2990    0.0000 C   0  0  0  0  0  0  0  0  0  0  0  0
    3.0000   -2.5981    0.0000 N   0  0  0  0  0  0  0  0  0  0  0  0
    3.0000    0.0000    0.0000 C   0  0  0  0  0  0  0  0  0  0  0  0
    1.5000    0.0000    0.0000 C   0  0  0  0  0  0  0  0  0  0  0  0
    0.7500   -1.2990    0.0000 C   0  0  0  0  0  0  0  0  0  0  0  0
   -0.7500   -1.2990    0.0000 C   0  0  0  0  0  0  0  0  0  0  0  0
   -1.5000    0.0000    0.0000 C   0  0  0  0  0  0  0  0  0  0  0  0
   -0.7500    1.2990    0.0000 C   0  0  0  0  0  0  0  0  0  0  0  0
    0.7500    1.2990    0.0000 C   0  0  0  0  0  0  0  0  0  0  0  0
  1  2  1  0
  2  3  1  0
  2  4  1  0
  4  5  1  0
  5  6  2  0
  6  7  1  0
  7  8  2  0
  8  9  1  0
  9 10  2  0
 10  5  1  0
M  END
$$$$
674328
     RDKit          2D

 19 18  0  0  0  0  0  0  0  0999 V2000
    5.2500   -1.2990    0.0000 C   0  0  0  0  0  0  0  0  0  0  0  0
    3.7500   -1.2990    0.0000 C   0  0  0  0  0  0  0  0  0  0  0  0
    3.0000   -2.5981    0.0000 N   0  0  0  0  0  0  0  0  0  0  0  0
    3.0000    0.0000    0.0000 C   0  0  0  0  0  0  0  0  0  0  0  0
    1.5000    0.0000    0.0000 C   0  0  0  0  0  0  0  0  0  0  0  0
    0.7500   -1.2990    0.0000 C   0  0  0  0  0  0  0  0  0  0  0  0
   -0.7500   -1.2990    0.0000 C   0  0  0  0  0  0  0  0  0  0  0  0
   -1.5000    0.0000    0.0000 C   0  0  0  0  0  0  0  0  0  0  0  0
   -0.7500    1.2990    0.0000 C   0  0  0  0  0  0  0  0  0  0  0  0
    0.7500    1.2990    0.0000 C   0  0  0  0  0  0  0  0  0  0  0  0
    1.2990    6.0490    0.0000 N   0  0  0  0  0  0  0  0  0  0  0  0
    1.2990    4.5490    0.0000 C   0  0  0  0  0  0  0  0  0  0  0  0
    0.0000    3.7990    0.0000 C   0  0  0  0  0  0  0  0  0  0  0  0
   -1.2990    4.5490    0.0000 C   0  0  0  0  0  0  0  0  0  0  0  0
   -1.2990    6.0490    0.0000 O   0  0  0  0  0  0  0  0  0  0  0  0
   -2.5981    3.7990    0.0000 O   0  0  0  0  0  0  0  0  0  0  0  0
    2.5981    3.7990    0.0000 C   0  0  0  0  0  0  0  0  0  0  0  0
    2.5981    2.2990    0.0000 O   0  0  0  0  0  0  0  0  0  0  0  0
    3.8971    4.5490    0.0000 O   0  0  0  0  0  0  0  0  0  0  0  0
  1  2  1  0
  2  3  1  0
  2  4  1  0
  4  5  1  0
  5  6  2  0
  6  7  1  0
  7  8  2  0
  8  9  1  0
  9 10  2  0
 11 12  1  0
 12 13  1  0
 13 14  1  0
 14 15  2  0
 14 16  1  0
 12 17  1  0
 17 18  2  0
 17 19  1  0
 10  5  1  0
M  END
$$$$
674338
     RDKit          2D

 20 19  0  0  0  0  0  0  0  0999 V2000
    5.2500   -1.2990    0.0000 C   0  0  0  0  0  0  0  0  0  0  0  0
    3.7500   -1.2990    0.0000 C   0  0  0  0  0  0  0  0  0  0  0  0
    3.0000   -2.5981    0.0000 N   0  0  0  0  0  0  0  0  0  0  0  0
    3.0000    0.0000    0.0000 C   0  0  0  0  0  0  0  0  0  0  0  0
    1.5000    0.0000    0.0000 C   0  0  0  0  0  0  0  0  0  0  0  0
    0.7500   -1.2990    0.0000 C   0  0  0  0  0  0  0  0  0  0  0  0
   -0.7500   -1.2990    0.0000 C   0  0  0  0  0  0  0  0  0  0  0  0
   -1.5000    0.0000    0.0000 C   0  0  0  0  0  0  0  0  0  0  0  0
   -0.7500    1.2990    0.0000 C   0  0  0  0  0  0  0  0  0  0  0  0
    0.7500    1.2990    0.0000 C   0  0  0  0  0  0  0  0  0  0  0  0
   -2.5981    3.7990    0.0000 O   0  0  0  0  0  0  0  0  0  0  0  0
   -1.2990    4.5490    0.0000 C   0  0  0  0  0  0  0  0  0  0  0  0
   -1.2990    6.0490    0.0000 O   0  0  0  0  0  0  0  0  0  0  0  0
    0.0000    3.7990    0.0000 C   0  0  0  0  0  0  0  0  0  0  0  0
    1.2990    4.5490    0.0000 C   0  0  0  0  0  0  0  0  0  0  0  0
    2.5981    3.7990    0.0000 C   0  0  0  0  0  0  0  0  0  0  0  0
    3.8971    4.5490    0.0000 C   0  0  0  0  0  0  0  0  0  0  0  0
    5.1962    3.7990    0.0000 C   0  0  0  0  0  0  0  0  0  0  0  0
    5.1962    2.2990    0.0000 O   0  0  0  0  0  0  0  0  0  0  0  0
    6.4952    4.5490    0.0000 O   0  0  0  0  0  0  0  0  0  0  0  0
  1  2  1  0
  2  3  1  0
  2  4  1  0
  4  5  1  0
  5  6  2  0
  6  7  1  0
  7  8  2  0
  8  9  1  0
  9 10  2  0
 11 12  1  0
 12 13  2  0
 12 14  1  0
 14 15  1  0
 15 16  1  0
 16 17  1  0
 17 18  1  0
 18 19  2  0
 18 20  1  0
 10  5  1  0
M  END
$$$$
8838
     RDKit          2D

 15 14  0  0  0  0  0  0  0  0999 V2000
    5.2500   -1.2990    0.0000 C   0  0  0  0  0  0  0  0  0  0  0  0
    3.7500   -1.2990    0.0000 C   0  0  0  0  0  0  0  0  0  0  0  0
    3.0000   -2.5981    0.0000 N   0  0  0  0  0  0  0  0  0  0  0  0
    3.0000    0.0000    0.0000 C   0  0  0  0  0  0  0  0  0  0  0  0
    1.5000    0.0000    0.0000 C   0  0  0  0  0  0  0  0  0  0  0  0
    0.7500   -1.2990    0.0000 C   0  0  0  0  0  0  0  0  0  0  0  0
   -0.7500   -1.2990    0.0000 C   0  0  0  0  0  0  0  0  0  0  0  0
   -1.5000    0.0000    0.0000 C   0  0  0  0  0  0  0  0  0  0  0  0
   -0.7500    1.2990    0.0000 C   0  0  0  0  0  0  0  0  0  0  0  0
    0.7500    1.2990    0.0000 C   0  0  0  0  0  0  0  0  0  0  0  0
    0.0000    2.8481    0.0000 O   0  0  0  0  0  0  0  0  0  0  0  0
    1.2990    3.5981    0.0000 S   0  0  0  0  0  0  0  0  0  0  0  0
    2.0490    2.2990    0.0000 O   0  0  0  0  0  0  0  0  0  0  0  0
    0.5490    4.8971    0.0000 O   0  0  0  0  0  0  0  0  0  0  0  0
    2.5981    4.3481    0.0000 O   0  0  0  0  0  0  0  0  0  0  0  0
  1  2  1  0
  2  3  1  0
  2  4  1  0
  4  5  1  0
  5  6  2  0
  6  7  1  0
  7  8  2  0
  8  9  1  0
  9 10  2  0
 11 12  1  0
 12 13  2  0
 12 14  2  0
 12 15  1  0
 10  5  1  0
M  END
$$$$
15958
     RDKit          2D

 13 13  0  0  0  0  0  0  0  0999 V2000
    6.0000   -2.5981    0.0000 C   0  0  0  0  0  0  0  0  0  0  0  0
    5.2500   -1.2990    0.0000 C   0  0  0  0  0  0  0  0  0  0  0  0
    6.0000    0.0000    0.0000 N   0  0  0  0  0  0  0  0  0  0  0  0
    3.7500   -1.2990    0.0000 C   0  0  0  0  0  0  0  0  0  0  0  0
    3.0000    0.0000    0.0000 O   0  0  0  0  0  0  0  0  0  0  0  0
    1.5000    0.0000    0.0000 C   0  0  0  0  0  0  0  0  0  0  0  0
    0.7500   -1.2990    0.0000 C   0  0  0  0  0  0  0  0  0  0  0  0
    1.5000   -2.5981    0.0000 C   0  0  0  0  0  0  0  0  0  0  0  0
   -0.7500   -1.2990    0.0000 C   0  0  0  0  0  0  0  0  0  0  0  0
   -1.5000    0.0000    0.0000 C   0  0  0  0  0  0  0  0  0  0  0  0
   -0.7500    1.2990    0.0000 C   0  0  0  0  0  0  0  0  0  0  0  0
    0.7500    1.2990    0.0000 C   0  0  0  0  0  0  0  0  0  0  0  0
    1.5000    2.5981    0.0000 C   0  0  0  0  0  0  0  0  0  0  0  0
  1  2  1  0
  2  3  1  0
  2  4  1  0
  4  5  1  0
  5  6  1  0
  6  7  2  0
  7  8  1  0
  7  9  1  0
  9 10  2  0
 10 11  1  0
 11 12  2  0
 12 13  1  0
 12  6  1  0
M  END
$$$$
77128
     RDKit          2D

 16 16  0  0  0  0  0  0  0  0999 V2000
    5.2500   -1.2990    0.0000 C   0  0  0  0  0  0  0  0  0  0  0  0
    3.7500   -1.2990    0.0000 C   0  0  0  0  0  0  0  0  0  0  0  0
    3.0000   -2.5981    0.0000 N   0  0  0  0  0  0  0  0  0  0  0  0
    3.7500   -3.8971    0.0000 C   0  0  0  0  0  0  0  0  0  0  0  0
    2.4510   -4.6471    0.0000 C   0  0  0  0  0  0  0  0  0  0  0  0
    5.0490   -3.1471    0.0000 C   0  0  0  0  0  0  0  0  0  0  0  0
    4.5000   -5.1962    0.0000 C   0  0  0  0  0  0  0  0  0  0  0  0
    3.0000    0.0000    0.0000 C   0  0  0  0  0  0  0  0  0  0  0  0
    3.7500    1.2990    0.0000 O   0  0  0  0  0  0  0  0  0  0  0  0
    1.5000    0.0000    0.0000 C   0  0  0  0  0  0  0  0  0  0  0  0
    0.7500   -1.2990    0.0000 C   0  0  0  0  0  0  0  0  0  0  0  0
   -0.7500   -1.2990    0.0000 C   0  0  0  0  0  0  0  0  0  0  0  0
   -1.5000    0.0000    0.0000 C   0  0  0  0  0  0  0  0  0  0  0  0
   -0.7500    1.2990    0.0000 C   0  0  0  0  0  0  0  0  0  0  0  0
   -1.5000    2.5981    0.0000 Cl  0  0  0  0  0  0  0  0  0  0  0  0
    0.7500    1.2990    0.0000 C   0  0  0  0  0  0  0  0  0  0  0  0
  1  2  1  0
  2  3  1  0
  3  4  1  0
  4  5  1  0
  4  6  1  0
  4  7  1  0
  2  8  1  0
  8  9  2  0
  8 10  1  0
 10 11  2  0
 11 12  1  0
 12 13  2  0
 13 14  1  0
 14 15  1  0
 14 16  2  0
 16 10  1  0
M  END
$$$$
187515
     RDKit          2D

 18 18  0  0  0  0  0  0  0  0999 V2000
    5.2500   -3.8971    0.0000 C   0  0  0  0  0  0  0  0  0  0  0  0
    3.7500   -3.8971    0.0000 C   0  0  0  0  0  0  0  0  0  0  0  0
    3.0000   -2.5981    0.0000 N   0  0  0  0  0  0  0  0  0  0  0  0
    3.7500   -1.2990    0.0000 C   0  0  0  0  0  0  0  0  0  0  0  0
    5.2500   -1.2990    0.0000 N   0  0  0  0  0  0  0  0  0  0  0  0
    6.0000   -2.5981    0.0000 C   0  0  0  0  0  0  0  0  0  0  0  0
    6.7500   -3.8971    0.0000 N   0  0  0  0  0  0  0  0  0  0  0  0
    3.0000    0.0000    0.0000 N   0  0  0  0  0  0  0  0  0  0  0  0
    1.5000    0.0000    0.0000 C   0  0  0  0  0  0  0  0  0  0  0  0
    0.7500   -1.2990    0.0000 C   0  0  0  0  0  0  0  0  0  0  0  0
   -0.7500   -1.2990    0.0000 C   0  0  0  0  0  0  0  0  0  0  0  0
   -1.5000    0.0000    0.0000 N   0  0  0  0  0  0  0  0  0  0  0  0
   -0.7500    1.2990    0.0000 C   0  0  0  0  0  0  0  0  0  0  0  0
    0.7500    1.2990    0.0000 C   0  0  0  0  0  0  0  0  0  0  0  0
    3.0000   -5.1962    0.0000 C   0  0  0  0  0  0  0  0  0  0  0  0
    4.2990   -5.9462    0.0000 C   0  0  0  0  0  0  0  0  0  0  0  0
    1.7010   -4.4462    0.0000 C   0  0  0  0  0  0  0  0  0  0  0  0
    2.2500   -6.4952    0.0000 C   0  0  0  0  0  0  0  0  0  0  0  0
  1  2  1  0
  2  3  1  0
  3  4  1  0
  4  5  2  0
  5  6  1  0
  6  7  3  0
  4  8  1  0
  8  9  1  0
  9 10  2  0
 10 11  1  0
 11 12  2  0
 12 13  1  0
 13 14  2  0
  2 15  1  0
 15 16  1  0
 15 17  1  0
 15 18  1  0
 14  9  1  0
M  END
$$$$
717
     RDKit          2D

 29 30  0  0  0  0  0  0  0  0999 V2000
    3.7500   -2.3971    0.0000 C   0  0  0  0  0  0  0  0  0  0  0  0
    3.7500   -3.8971    0.0000 C   0  0  0  0  0  0  0  0  0  0  0  0
    5.2500   -3.8971    0.0000 O   0  0  0  0  0  0  0  0  0  0  0  0
    2.2500   -3.8971    0.0000 C   0  0  0  0  0  0  0  0  0  0  0  0
    1.5000   -2.5981    0.0000 S   0  0  0  0  0  0  0  0  0  0  0  0
    2.7990   -1.8481    0.0000 O   0  0  0  0  0  0  0  0  0  0  0  0
    0.2010   -3.3481    0.0000 O   0  0  0  0  0  0  0  0  0  0  0  0
    0.7500   -1.2990    0.0000 C   0  0  0  0  0  0  0  0  0  0  0  0
    1.5000    0.0000    0.0000 C   0  0  0  0  0  0  0  0  0  0  0  0
    0.7500    1.2990    0.0000 C   0  0  0  0  0  0  0  0  0  0  0  0
   -0.7500    1.2990    0.0000 C   0  0  0  0  0  0  0  0  0  0  0  0
   -1.5000    2.5981    0.0000 F   0  0  0  0  0  0  0  0  0  0  0  0
   -1.5000    0.0000    0.0000 C   0  0  0  0  0  0  0  0  0  0  0  0
   -0.7500   -1.2990    0.0000 C   0  0  0  0  0  0  0  0  0  0  0  0
    3.7500   -5.3971    0.0000 C   0  0  0  0  0  0  0  0  0  0  0  0
    2.4510   -6.1471    0.0000 O   0  0  0  0  0  0  0  0  0  0  0  0
    5.0490   -6.1471    0.0000 N   0  0  0  0  0  0  0  0  0  0  0  0
    5.0490   -7.6471    0.0000 C   0  0  0  0  0  0  0  0  0  0  0  0
    3.7500   -8.3971    0.0000 C   0  0  0  0  0  0  0  0  0  0  0  0
    3.7500   -9.8971    0.0000 C   0  0  0  0  0  0  0  0  0  0  0  0
    5.0490  -10.6471    0.0000 C   0  0  0  0  0  0  0  0  0  0  0  0
    5.0490  -12.1471    0.0000 C   0  0  0  0  0  0  0  0  0  0  0  0
    5.0490  -13.6471    0.0000 N   0  0  0  0  0  0  0  0  0  0  0  0
    6.3481   -9.8971    0.0000 C   0  0  0  0  0  0  0  0  0  0  0  0
    6.3481   -8.3971    0.0000 C   0  0  0  0  0  0  0  0  0  0  0  0
    7.6471  -10.6471    0.0000 C   0  0  0  0  0  0  0  0  0  0  0  0
    8.9462  -11.3971    0.0000 F   0  0  0  0  0  0  0  0  0  0  0  0
    8.3971   -9.3481    0.0000 F   0  0  0  0  0  0  0  0  0  0  0  0
    6.8971  -11.9462    0.0000 F   0  0  0  0  0  0  0  0  0  0  0  0
  1  2  1  0
  2  3  1  0
  2  4  1  0
  4  5  1  0
  5  6  2  0
  5  7  2  0
  5  8  1  0
  8  9  2  0
  9 10  1  0
 10 11  2  0
 11 12  1  0
 11 13  1  0
 13 14  2  0
  2 15  1  0
 15 16  2  0
 15 17  1  0
 17 18  1  0
 18 19  2  0
 19 20  1  0
 20 21  2  0
 21 22  1  0
 22 23  3  0
 21 24  1  0
 24 25  2  0
 24 26  1  0
 26 27  1  0
 26 28  1  0
 26 29  1  0
 14  8  1  0
 25 18  1  0
M  END
$$$$
70675
     RDKit          2D

 11 10  0  0  0  0  0  0  0  0999 V2000
    0.0000    0.0000    0.0000 C   0  0  0  0  0  0  0  0  0  0  0  0
    1.2990    0.7500    0.0000 C   0  0  0  0  0  0  0  0  0  0  0  0
    2.5981    1.5000    0.0000 O   0  0  0  0  0  0  0  0  0  0  0  0
    2.0490   -0.5490    0.0000 P   0  0  0  0  0  0  0  0  0  0  0  0
    2.7990   -1.8481    0.0000 O   0  0  0  0  0  0  0  0  0  0  0  0
    3.3481    0.2010    0.0000 O   0  0  0  0  0  0  0  0  0  0  0  0
    0.7500   -1.2990    0.0000 O   0  0  0  0  0  0  0  0  0  0  0  0
    0.5490    2.0490    0.0000 P   0  0  0  0  0  0  0  0  0  0  0  0
   -0.2010    3.3481    0.0000 O   0  0  0  0  0  0  0  0  0  0  0  0
    1.8481    2.7990    0.0000 O   0  0  0  0  0  0  0  0  0  0  0  0
   -0.7500    1.2990    0.0000 O   0  0  0  0  0  0  0  0  0  0  0  0
  1  2  1  0
  2  3  1  0
  2  4  1  0
  4  5  2  0
  4  6  1  0
  4  7  1  0
  2  8  1  0
  8  9  2  0
  8 10  1  0
  8 11  1  0
M  END
$$$$
1927217
     RDKit          2D

 32 33  0  0  0  0  0  0  0  0999 V2000
    0.0000    3.7990    0.0000 C   0  0  0  0  0  0  0  0  0  0  0  0
    1.2990    4.5490    0.0000 C   0  0  0  0  0  0  0  0  0  0  0  0
    1.2990    6.0490    0.0000 O   0  0  0  0  0  0  0  0  0  0  0  0
    2.5981    3.7990    0.0000 C   0  0  0  0  0  0  0  0  0  0  0  0
    2.5981    2.2990    0.0000 O   0  0  0  0  0  0  0  0  0  0  0  0
    3.8971    4.5490    0.0000 O   0  0  0  0  0  0  0  0  0  0  0  0
   -0.0000   -5.1073    0.0000 C   0  0  0  0  0  0  0  0  0  0  0  0
   -0.0000   -3.6073    0.0000 C   0  0  0  0  0  0  0  0  0  0  0  0
    1.2135   -2.7256    0.0000 N   0  0  0  0  0  0  0  0  0  0  0  0
    0.7500   -1.2990    0.0000 C   0  0  0  0  0  0  0  0  0  0  0  0
    1.5000    0.0000    0.0000 C   0  0  0  0  0  0  0  0  0  0  0  0
    0.7500    1.2990    0.0000 C   0  0  0  0  0  0  0  0  0  0  0  0
   -0.7500    1.2990    0.0000 C   0  0  0  0  0  0  0  0  0  0  0  0
   -1.5000    0.0000    0.0000 C   0  0  0  0  0  0  0  0  0  0  0  0
   -0.7500   -1.2990    0.0000 C   0  0  0  0  0  0  0  0  0  0  0  0
   -1.2135   -2.7256    0.0000 C   0  0  0  0  0  0  0  0  0  0  0  0
   -2.6401   -3.1891    0.0000 C   0  0  0  0  0  0  0  0  0  0  0  0
   -2.9520   -4.6564    0.0000 C   0  0  0  0  0  0  0  0  0  0  0  0
   -4.3786   -5.1199    0.0000 N   0  0  0  0  0  0  0  0  0  0  0  0
   -4.6904   -6.5871    0.0000 C   0  0  0  0  0  0  0  0  0  0  0  0
   -6.1170   -7.0506    0.0000 C   0  0  0  0  0  0  0  0  0  0  0  0
   -7.2317   -6.0469    0.0000 C   0  0  0  0  0  0  0  0  0  0  0  0
   -8.6583   -6.5105    0.0000 C   0  0  0  0  0  0  0  0  0  0  0  0
   -8.9702   -7.9777    0.0000 C   0  0  0  0  0  0  0  0  0  0  0  0
  -10.3968   -8.4412    0.0000 C   0  0  0  0  0  0  0  0  0  0  0  0
  -10.7086   -9.9084    0.0000 C   0  0  0  0  0  0  0  0  0  0  0  0
  -12.1352  -10.3720    0.0000 C   0  0  0  0  0  0  0  0  0  0  0  0
  -13.2499   -9.3683    0.0000 O   0  0  0  0  0  0  0  0  0  0  0  0
  -12.4471  -11.8392    0.0000 N   0  0  0  0  0  0  0  0  0  0  0  0
  -13.8737  -12.3027    0.0000 O   0  0  0  0  0  0  0  0  0  0  0  0
   -7.8555   -8.9814    0.0000 C   0  0  0  0  0  0  0  0  0  0  0  0
   -6.4289   -8.5179    0.0000 C   0  0  0  0  0  0  0  0  0  0  0  0
  1  2  1  0
  2  3  1  0
  2  4  1  0
  4  5  2  0
  4  6  1  0
  7  8  1  0
  8  9  1  0
  9 10  1  0
 10 11  2  0
 11 12  1  0
 12 13  2  0
 13 14  1  0
 14 15  2  0
 15 16  1  0
 16 17  1  0
 17 18  1  0
 18 19  1  0
 19 20  1  0
 20 21  1  0
 21 22  2  0
 22 23  1  0
 23 24  2  0
 24 25  1  0
 25 26  2  0
 26 27  1  0
 27 28  2  0
 27 29  1  0
 29 30  1  0
 24 31  1  0
 31 32  2  0
 16  8  2  0
 15 10  1  0
 32 21  1  0
M  END
$$$$
264400
     RDKit          2D

 10  9  0  0  0  0  0  0  0  0999 V2000
    0.0000    0.0000    0.0000 C   0  0  0  0  0  0  0  0  0  0  0  0
    1.2990    0.7500    0.0000 C   0  0  0  0  0  0  0  0  0  0  0  0
    1.2990    2.2500    0.0000 S   0  0  0  0  0  0  0  0  0  0  0  0
    2.5981   -0.0000    0.0000 C   0  0  0  0  0  0  0  0  0  0  0  0
    2.5981   -1.5000    0.0000 O   0  0  0  0  0  0  0  0  0  0  0  0
    3.8971    0.7500    0.0000 N   0  0  0  0  0  0  0  0  0  0  0  0
    5.1962   -0.0000    0.0000 C   0  0  0  0  0  0  0  0  0  0  0  0
    6.4952    0.7500    0.0000 C   0  0  0  0  0  0  0  0  0  0  0  0
    6.4952    2.2500    0.0000 O   0  0  0  0  0  0  0  0  0  0  0  0
    7.7942   -0.0000    0.0000 O   0  0  0  0  0  0  0  0  0  0  0  0
  1  2  1  0
  2  3  1  0
  2  4  1  0
  4  5  2  0
  4  6  1  0
  6  7  1  0
  7  8  1  0
  8  9  2  0
  8 10  1  0
M  END
$$$$
1626740
     RDKit          2D

 61 68  0  0  0  0  0  0  0  0999 V2000
    9.6500    6.4132    0.0000 C   0  0  0  0  0  0  0  0  0  0  0  0
    8.1510    6.4656    0.0000 C   0  0  0  0  0  0  0  0  0  0  0  0
    8.3597    4.9802    0.0000 C   0  0  0  0  0  0  0  0  0  0  0  0
    6.7244    6.0021    0.0000 C   0  0  0  0  0  0  0  0  0  0  0  0
    5.6097    7.0058    0.0000 C   0  0  0  0  0  0  0  0  0  0  0  0
    5.9215    8.4730    0.0000 C   0  0  0  0  0  0  0  0  0  0  0  0
    7.3481    8.9365    0.0000 C   0  0  0  0  0  0  0  0  0  0  0  0
    8.4628    7.9328    0.0000 C   0  0  0  0  0  0  0  0  0  0  0  0
    7.6600   10.4037    0.0000 C   0  0  0  0  0  0  0  0  0  0  0  0
    9.0866   10.8673    0.0000 C   0  0  0  0  0  0  0  0  0  0  0  0
    9.3984   12.3345    0.0000 C   0  0  0  0  0  0  0  0  0  0  0  0
    8.2837   13.3382    0.0000 C   0  0  0  0  0  0  0  0  0  0  0  0
    8.5956   14.8054    0.0000 Cl  0  0  0  0  0  0  0  0  0  0  0  0
    6.8571   12.8747    0.0000 C   0  0  0  0  0  0  0  0  0  0  0  0
    6.5453   11.4074    0.0000 C   0  0  0  0  0  0  0  0  0  0  0  0
    4.8068    9.4767    0.0000 C   0  0  0  0  0  0  0  0  0  0  0  0
    3.3802    9.0132    0.0000 N   0  0  0  0  0  0  0  0  0  0  0  0
    2.2655   10.0169    0.0000 C   0  0  0  0  0  0  0  0  0  0  0  0
    0.8389    9.5533    0.0000 C   0  0  0  0  0  0  0  0  0  0  0  0
    0.5271    8.0861    0.0000 N   0  0  0  0  0  0  0  0  0  0  0  0
    1.6418    7.0824    0.0000 C   0  0  0  0  0  0  0  0  0  0  0  0
    3.0684    7.5459    0.0000 C   0  0  0  0  0  0  0  0  0  0  0  0
   -0.8995    7.6226    0.0000 C   0  0  0  0  0  0  0  0  0  0  0  0
   -2.0143    8.6263    0.0000 C   0  0  0  0  0  0  0  0  0  0  0  0
   -3.4408    8.1628    0.0000 C   0  0  0  0  0  0  0  0  0  0  0  0
   -3.7527    6.6955    0.0000 C   0  0  0  0  0  0  0  0  0  0  0  0
   -5.1793    6.2320    0.0000 C   0  0  0  0  0  0  0  0  0  0  0  0
   -5.4912    4.7648    0.0000 O   0  0  0  0  0  0  0  0  0  0  0  0
   -6.2940    7.2357    0.0000 N   0  0  0  0  0  0  0  0  0  0  0  0
   -7.7206    6.7722    0.0000 S   0  0  0  0  0  0  0  0  0  0  0  0
   -7.2571    5.3456    0.0000 O   0  0  0  0  0  0  0  0  0  0  0  0
   -8.1841    8.1988    0.0000 O   0  0  0  0  0  0  0  0  0  0  0  0
   -9.1472    6.3086    0.0000 C   0  0  0  0  0  0  0  0  0  0  0  0
  -10.2619    7.3123    0.0000 C   0  0  0  0  0  0  0  0  0  0  0  0
  -11.6885    6.8488    0.0000 C   0  0  0  0  0  0  0  0  0  0  0  0
  -12.0003    5.3816    0.0000 C   0  0  0  0  0  0  0  0  0  0  0  0
  -13.4269    4.9181    0.0000 N   0  0  0  0  0  0  0  0  0  0  0  0
  -14.5416    5.9218    0.0000 C   0  0  0  0  0  0  0  0  0  0  0  0
  -15.9682    5.4582    0.0000 C   0  0  0  0  0  0  0  0  0  0  0  0
  -17.0829    6.4619    0.0000 C   0  0  0  0  0  0  0  0  0  0  0  0
  -18.5095    5.9984    0.0000 C   0  0  0  0  0  0  0  0  0  0  0  0
  -18.8214    4.5312    0.0000 O   0  0  0  0  0  0  0  0  0  0  0  0
  -17.7067    3.5275    0.0000 C   0  0  0  0  0  0  0  0  0  0  0  0
  -16.2801    3.9910    0.0000 C   0  0  0  0  0  0  0  0  0  0  0  0
  -10.8856    4.3779    0.0000 C   0  0  0  0  0  0  0  0  0  0  0  0
   -9.4590    4.8414    0.0000 C   0  0  0  0  0  0  0  0  0  0  0  0
  -11.1975    2.9107    0.0000 N   0  0  0  0  0  0  0  0  0  0  0  0
  -10.0828    1.9070    0.0000 O   0  0  0  0  0  0  0  0  0  0  0  0
  -12.6241    2.4472    0.0000 O   0  0  0  0  0  0  0  0  0  0  0  0
   -2.6380    5.6918    0.0000 C   0  0  0  0  0  0  0  0  0  0  0  0
   -2.9499    4.2246    0.0000 O   0  0  0  0  0  0  0  0  0  0  0  0
   -1.8351    3.2209    0.0000 C   0  0  0  0  0  0  0  0  0  0  0  0
   -0.4086    3.6844    0.0000 C   0  0  0  0  0  0  0  0  0  0  0  0
    0.7062    2.6807    0.0000 N   0  0  0  0  0  0  0  0  0  0  0  0
    0.3943    1.2135    0.0000 C   0  0  0  0  0  0  0  0  0  0  0  0
    1.2760    0.0000    0.0000 N   0  0  0  0  0  0  0  0  0  0  0  0
    0.3943   -1.2135    0.0000 C   0  0  0  0  0  0  0  0  0  0  0  0
   -1.0323   -0.7500    0.0000 C   0  0  0  0  0  0  0  0  0  0  0  0
   -1.0323    0.7500    0.0000 C   0  0  0  0  0  0  0  0  0  0  0  0
   -2.1470    1.7537    0.0000 C   0  0  0  0  0  0  0  0  0  0  0  0
   -1.2114    6.1554    0.0000 C   0  0  0  0  0  0  0  0  0  0  0  0
  1  2  1  0
  2  3  1  0
  2  4  1  0
  4  5  1  0
  5  6  1  0
  6  7  2  0
  7  8  1  0
  7  9  1  0
  9 10  2  0
 10 11  1  0
 11 12  2  0
 12 13  1  0
 12 14  1  0
 14 15  2  0
  6 16  1  0
 16 17  1  0
 17 18  1  0
 18 19  1  0
 19 20  1  0
 20 21  1  0
 21 22  1  0
 20 23  1  0
 23 24  2  0
 24 25  1  0
 25 26  2  0
 26 27  1  0
 27 28  2  0
 27 29  1  0
 29 30  1  0
 30 31  2  0
 30 32  2  0
 30 33  1  0
 33 34  2  0
 34 35  1  0
 35 36  2  0
 36 37  1  0
 37 38  1  0
 38 39  1  0
 39 40  1  0
 40 41  1  0
 41 42  1  0
 42 43  1  0
 43 44  1  0
 36 45  1  0
 45 46  2  0
 45 47  1  0
 47 48  1  0
 47 49  2  0
 26 50  1  0
 50 51  1  0
 51 52  1  0
 52 53  2  0
 53 54  1  0
 54 55  2  0
 55 56  1  0
 56 57  1  0
 57 58  2  0
 58 59  1  0
 59 60  2  0
 50 61  2  0
  8  2  1  0
 15  9  1  0
 22 17  1  0
 61 23  1  0
 46 33  1  0
 44 39  1  0
 60 52  1  0
 59 55  1  0
M  CHG  2  47   1  48  -1
M  END
$$$$
249414
     RDKit          2D

 22 23  0  0  0  0  0  0  0  0999 V2000
    2.8863   -6.1856    0.0000 C   0  0  0  0  0  0  0  0  0  0  0  0
    2.0046   -4.9721    0.0000 C   0  0  0  0  0  0  0  0  0  0  0  0
    0.8899   -5.9758    0.0000 C   0  0  0  0  0  0  0  0  0  0  0  0
    3.3037   -4.2221    0.0000 N   0  0  0  0  0  0  0  0  0  0  0  0
    2.9918   -2.7549    0.0000 C   0  0  0  0  0  0  0  0  0  0  0  0
    3.9955   -1.6402    0.0000 O   0  0  0  0  0  0  0  0  0  0  0  0
    1.5000   -2.5981    0.0000 N   0  0  0  0  0  0  0  0  0  0  0  0
    0.8899   -3.9684    0.0000 C   0  0  0  0  0  0  0  0  0  0  0  0
   -0.5773   -4.2803    0.0000 O   0  0  0  0  0  0  0  0  0  0  0  0
    0.7500   -1.2990    0.0000 C   0  0  0  0  0  0  0  0  0  0  0  0
    1.5000    0.0000    0.0000 C   0  0  0  0  0  0  0  0  0  0  0  0
    0.7500    1.2990    0.0000 C   0  0  0  0  0  0  0  0  0  0  0  0
   -0.7500    1.2990    0.0000 C   0  0  0  0  0  0  0  0  0  0  0  0
   -1.5000    0.0000    0.0000 C   0  0  0  0  0  0  0  0  0  0  0  0
   -0.7500   -1.2990    0.0000 C   0  0  0  0  0  0  0  0  0  0  0  0
   -3.0000    0.0000    0.0000 C   0  0  0  0  0  0  0  0  0  0  0  0
   -4.5000    0.0000    0.0000 F   0  0  0  0  0  0  0  0  0  0  0  0
   -3.0000    1.5000    0.0000 F   0  0  0  0  0  0  0  0  0  0  0  0
   -3.0000   -1.5000    0.0000 F   0  0  0  0  0  0  0  0  0  0  0  0
   -1.5000    2.5981    0.0000 N   0  0  0  0  0  4  0  0  0  0  0  0
   -3.0000    2.5981    0.0000 O   0  0  0  0  0  0  0  0  0  0  0  0
   -0.7500    3.8971    0.0000 O   0  0  0  0  0  1  0  0  0  0  0  0
  1  2  1  0
  2  3  1  0
  2  4  1  0
  4  5  1  0
  5  6  2  0
  5  7  1  0
  7  8  1  0
  8  9  2  0
  7 10  1  0
 10 11  2  0
 11 12  1  0
 12 13  2  0
 13 14  1  0
 14 15  2  0
 14 16  1  0
 16 17  1  0
 16 18  1  0
 16 19  1  0
 13 20  1  0
 20 21  2  0
 20 22  1  0
  8  2  1  0
 15 10  1  0
M  CHG  2  20   1  22  -1
M  END
$$$$
366279
     RDKit          2D

 22 24  0  0  0  0  0  0  0  0999 V2000
    2.3907    1.0037    0.0000 C   0  0  0  0  0  0  0  0  0  0  0  0
    1.2760    0.0000    0.0000 C   0  0  0  0  0  0  0  0  0  0  0  0
    2.3907   -1.0037    0.0000 C   0  0  0  0  0  0  0  0  0  0  0  0
    0.3943    1.2135    0.0000 O   0  0  0  0  0  0  0  0  0  0  0  0
   -1.0323    0.7500    0.0000 C   0  0  0  0  0  0  0  0  0  0  0  0
   -2.3313    1.5000    0.0000 C   0  0  0  0  0  0  0  0  0  0  0  0
   -3.6304    0.7500    0.0000 O   0  0  0  0  0  0  0  0  0  0  0  0
   -3.6304   -0.7500    0.0000 C   0  0  0  0  0  0  0  0  0  0  0  0
   -5.0007   -0.1399    0.0000 C   0  0  0  0  0  0  0  0  0  0  0  0
   -5.1575    1.3519    0.0000 O   0  0  0  0  0  0  0  0  0  0  0  0
   -6.5278    1.9620    0.0000 S   0  0  0  0  0  0  0  0  0  0  0  0
   -7.1379    0.5917    0.0000 O   0  0  0  0  0  0  0  0  0  0  0  0
   -5.9177    3.3323    0.0000 O   0  0  0  0  0  0  0  0  0  0  0  0
   -7.8981    2.5721    0.0000 N   0  0  0  0  0  0  0  0  0  0  0  0
   -4.7451   -1.7537    0.0000 O   0  0  0  0  0  0  0  0  0  0  0  0
   -4.1350   -3.1240    0.0000 C   0  0  0  0  0  0  0  0  0  0  0  0
   -5.5616   -3.5875    0.0000 C   0  0  0  0  0  0  0  0  0  0  0  0
   -3.8231   -4.5912    0.0000 C   0  0  0  0  0  0  0  0  0  0  0  0
   -2.6432   -2.9672    0.0000 O   0  0  0  0  0  0  0  0  0  0  0  0
   -2.3313   -1.5000    0.0000 C   0  0  0  0  0  0  0  0  0  0  0  0
   -1.0323   -0.7500    0.0000 C   0  0  0  0  0  0  0  0  0  0  0  0
    0.3943   -1.2135    0.0000 O   0  0  0  0  0  0  0  0  0  0  0  0
  1  2  1  0
  2  3  1  0
  2  4  1  0
  4  5  1  0
  5  6  1  1
  6  7  1  0
  7  8  1  0
  8  9  1  1
  9 10  1  0
 10 11  1  0
 11 12  2  0
 11 13  2  0
 11 14  1  0
  8 15  1  0
 15 16  1  0
 16 17  1  0
 16 18  1  0
 16 19  1  0
 20 19  1  6
 20 21  1  0
 21 22  1  1
 22  2  1  0
 21  5  1  0
 20  8  1  0
M  END
$$$$
675067
     RDKit          2D

 27 30  0  0  0  0  0  0  0  0999 V2000
    2.3907    1.0037    0.0000 C   0  0  0  0  0  0  0  0  0  0  0  0
    1.2760    0.0000    0.0000 C   0  0  0  0  0  0  0  0  0  0  0  0
    2.3907   -1.0037    0.0000 C   0  0  0  0  0  0  0  0  0  0  0  0
    0.3943    1.2135    0.0000 S   0  0  0  0  0  0  0  0  0  0  0  0
   -1.0323    0.7500    0.0000 C   0  0  0  0  0  0  0  0  0  0  0  0
   -2.5323    0.7500    0.0000 C   0  0  0  0  0  0  0  0  0  0  0  0
   -3.5929    1.8107    0.0000 N   0  0  0  0  0  0  0  0  0  0  0  0
   -5.0745    1.5760    0.0000 C   0  0  0  0  0  0  0  0  0  0  0  0
   -5.7555    0.2395    0.0000 O   0  0  0  0  0  0  0  0  0  0  0  0
   -5.7555    2.9125    0.0000 C   0  0  0  0  0  0  0  0  0  0  0  0
   -4.6948    3.9732    0.0000 N   0  0  0  0  0  0  0  0  0  0  0  0
   -3.3583    3.2922    0.0000 C   0  0  0  0  0  0  0  0  0  0  0  0
   -2.8207    4.6926    0.0000 C   0  0  0  0  0  0  0  0  0  0  0  0
   -1.9094    2.9040    0.0000 C   0  0  0  0  0  0  0  0  0  0  0  0
   -7.2370    3.1472    0.0000 C   0  0  0  0  0  0  0  0  0  0  0  0
   -7.7745    4.5475    0.0000 C   0  0  0  0  0  0  0  0  0  0  0  0
   -9.2561    4.7822    0.0000 C   0  0  0  0  0  0  0  0  0  0  0  0
  -10.2001    3.6165    0.0000 C   0  0  0  0  0  0  0  0  0  0  0  0
   -9.6625    2.2161    0.0000 C   0  0  0  0  0  0  0  0  0  0  0  0
   -8.1810    1.9815    0.0000 C   0  0  0  0  0  0  0  0  0  0  0  0
   -2.5323   -0.7500    0.0000 C   0  0  0  0  0  0  0  0  0  0  0  0
   -3.5929   -1.8107    0.0000 O   0  0  0  0  0  0  0  0  0  0  0  0
   -1.0323   -0.7500    0.0000 N   0  0  0  0  0  0  0  0  0  0  0  0
    0.3943   -1.2135    0.0000 C   0  0  0  0  0  0  0  0  0  0  0  0
    0.8578   -2.6401    0.0000 C   0  0  0  0  0  0  0  0  0  0  0  0
    2.3250   -2.9520    0.0000 O   0  0  0  0  0  0  0  0  0  0  0  0
   -0.1459   -3.7548    0.0000 O   0  0  0  0  0  0  0  0  0  0  0  0
  1  2  1  0
  2  3  1  0
  2  4  1  0
  5  4  1  1
  5  6  1  0
  6  7  1  1
  7  8  1  0
  8  9  2  0
  8 10  1  0
 10 11  1  0
 11 12  1  0
 12 13  1  0
 12 14  1  0
 10 15  1  1
 15 16  2  0
 16 17  1  0
 17 18  2  0
 18 19  1  0
 19 20  2  0
  6 21  1  0
 21 22  2  0
 21 23  1  0
 23 24  1  0
 24 25  1  6
 25 26  2  0
 25 27  1  0
 24  2  1  0
 23  5  1  0
 12  7  1  0
 20 15  1  0
M  END
$$$$
454373
     RDKit          2D

 35 39  0  0  0  0  0  0  0  0999 V2000
  -11.9918    9.2332    0.0000 C   0  0  0  0  0  0  0  0  0  0  0  0
  -11.4543    7.8328    0.0000 C   0  0  0  0  0  0  0  0  0  0  0  0
  -12.9032    7.4446    0.0000 C   0  0  0  0  0  0  0  0  0  0  0  0
  -10.1178    8.5138    0.0000 S   0  0  0  0  0  0  0  0  0  0  0  0
   -9.0571    7.4532    0.0000 C   0  0  0  0  0  0  0  0  0  0  0  0
   -7.7206    6.7722    0.0000 C   0  0  0  0  0  0  0  0  0  0  0  0
   -6.2940    7.2357    0.0000 N   0  0  0  0  0  0  0  0  0  0  0  0
   -5.1793    6.2320    0.0000 C   0  0  0  0  0  0  0  0  0  0  0  0
   -5.4912    4.7648    0.0000 O   0  0  0  0  0  0  0  0  0  0  0  0
   -3.7527    6.6955    0.0000 C   0  0  0  0  0  0  0  0  0  0  0  0
   -2.6380    5.6918    0.0000 C   0  0  0  0  0  0  0  0  0  0  0  0
   -1.2114    6.1554    0.0000 O   0  0  0  0  0  0  0  0  0  0  0  0
   -2.9499    4.2246    0.0000 O   0  0  0  0  0  0  0  0  0  0  0  0
   -1.8351    3.2209    0.0000 C   0  0  0  0  0  0  0  0  0  0  0  0
   -0.4086    3.6844    0.0000 C   0  0  0  0  0  0  0  0  0  0  0  0
    0.7062    2.6807    0.0000 C   0  0  0  0  0  0  0  0  0  0  0  0
    0.3943    1.2135    0.0000 C   0  0  0  0  0  0  0  0  0  0  0  0
    1.2760    0.0000    0.0000 C   0  0  0  0  0  0  0  0  0  0  0  0
    0.3943   -1.2135    0.0000 C   0  0  0  0  0  0  0  0  0  0  0  0
   -1.0323   -0.7500    0.0000 C   0  0  0  0  0  0  0  0  0  0  0  0
   -1.0323    0.7500    0.0000 C   0  0  0  0  0  0  0  0  0  0  0  0
   -2.1470    1.7537    0.0000 C   0  0  0  0  0  0  0  0  0  0  0  0
   -3.4408    8.1628    0.0000 C   0  0  0  0  0  0  0  0  0  0  0  0
   -2.0143    8.6263    0.0000 C   0  0  0  0  0  0  0  0  0  0  0  0
   -1.7024   10.0935    0.0000 C   0  0  0  0  0  0  0  0  0  0  0  0
   -2.8171   11.0972    0.0000 C   0  0  0  0  0  0  0  0  0  0  0  0
   -4.2437   10.6337    0.0000 C   0  0  0  0  0  0  0  0  0  0  0  0
   -4.5556    9.1664    0.0000 C   0  0  0  0  0  0  0  0  0  0  0  0
   -8.4016    5.4357    0.0000 C   0  0  0  0  0  0  0  0  0  0  0  0
   -7.9381    4.0091    0.0000 O   0  0  0  0  0  0  0  0  0  0  0  0
   -9.7381    6.1167    0.0000 N   0  0  0  0  0  0  0  0  0  0  0  0
  -11.2196    6.3513    0.0000 C   0  0  0  0  0  0  0  0  0  0  0  0
  -12.2803    5.2906    0.0000 C   0  0  0  0  0  0  0  0  0  0  0  0
  -13.7292    5.6789    0.0000 O   0  0  0  0  0  0  0  0  0  0  0  0
  -11.8920    3.8418    0.0000 O   0  0  0  0  0  0  0  0  0  0  0  0
  1  2  1  0
  2  3  1  0
  2  4  1  0
  5  4  1  6
  5  6  1  0
  6  7  1  6
  7  8  1  0
  8  9  2  0
  8 10  1  0
 10 11  1  0
 11 12  2  0
 11 13  1  0
 13 14  1  0
 14 15  2  0
 15 16  1  0
 16 17  2  0
 17 18  1  0
 18 19  1  0
 19 20  1  0
 20 21  1  0
 21 22  2  0
 10 23  1  0
 23 24  2  0
 24 25  1  0
 25 26  2  0
 26 27  1  0
 27 28  2  0
  6 29  1  0
 29 30  2  0
 29 31  1  0
 31 32  1  0
 32 33  1  1
 33 34  2  0
 33 35  1  0
 32  2  1  0
 31  5  1  0
 22 14  1  0
 21 17  1  0
 28 23  1  0
M  END
$$$$
674307
     RDKit          2D

 23 25  0  0  0  0  0  0  0  0999 V2000
    2.3907    1.0037    0.0000 C   0  0  0  0  0  0  0  0  0  0  0  0
    1.2760    0.0000    0.0000 C   0  0  0  0  0  0  0  0  0  0  0  0
    2.3907   -1.0037    0.0000 C   0  0  0  0  0  0  0  0  0  0  0  0
    0.3943    1.2135    0.0000 S   0  0  0  0  0  0  0  0  0  0  0  0
   -1.0323    0.7500    0.0000 C   0  0  0  0  0  0  0  0  0  0  0  0
   -2.5323    0.7500    0.0000 C   0  0  0  0  0  0  0  0  0  0  0  0
   -3.5929    1.8107    0.0000 N   0  0  0  0  0  0  0  0  0  0  0  0
   -3.2047    3.2595    0.0000 C   0  0  0  0  0  0  0  0  0  0  0  0
   -1.7558    3.6478    0.0000 O   0  0  0  0  0  0  0  0  0  0  0  0
   -4.2654    4.3202    0.0000 C   0  0  0  0  0  0  0  0  0  0  0  0
   -5.1257    3.0915    0.0000 N   0  0  0  0  0  0  0  0  0  0  0  0
   -3.0367    5.1806    0.0000 C   0  0  0  0  0  0  0  0  0  0  0  0
   -3.1674    6.6749    0.0000 C   0  0  0  0  0  0  0  0  0  0  0  0
   -4.5268    7.3088    0.0000 C   0  0  0  0  0  0  0  0  0  0  0  0
   -5.7556    6.4484    0.0000 C   0  0  0  0  0  0  0  0  0  0  0  0
   -5.6248    4.9541    0.0000 C   0  0  0  0  0  0  0  0  0  0  0  0
   -2.5323   -0.7500    0.0000 C   0  0  0  0  0  0  0  0  0  0  0  0
   -3.5929   -1.8107    0.0000 O   0  0  0  0  0  0  0  0  0  0  0  0
   -1.0323   -0.7500    0.0000 N   0  0  0  0  0  0  0  0  0  0  0  0
    0.3943   -1.2135    0.0000 C   0  0  0  0  0  0  0  0  0  0  0  0
    0.8578   -2.6401    0.0000 C   0  0  0  0  0  0  0  0  0  0  0  0
    2.3250   -2.9520    0.0000 O   0  0  0  0  0  0  0  0  0  0  0  0
   -0.1459   -3.7548    0.0000 O   0  0  0  0  0  0  0  0  0  0  0  0
  1  2  1  0
  2  3  1  0
  2  4  1  0
  5  4  1  1
  5  6  1  0
  6  7  1  1
  7  8  1  0
  8  9  2  0
  8 10  1  0
 10 11  1  0
 10 12  1  0
 12 13  1  0
 13 14  1  0
 14 15  1  0
 15 16  1  0
  6 17  1  0
 17 18  2  0
 17 19  1  0
 19 20  1  0
 20 21  1  6
 21 22  2  0
 21 23  1  0
 20  2  1  0
 19  5  1  0
 16 10  1  0
M  END
$$$$
1615
     RDKit          2D

 23 25  0  0  0  0  0  0  0  0999 V2000
    2.3907    1.0037    0.0000 C   0  0  0  0  0  0  0  0  0  0  0  0
    1.2760    0.0000    0.0000 C   0  0  0  0  0  0  0  0  0  0  0  0
    2.3907   -1.0037    0.0000 C   0  0  0  0  0  0  0  0  0  0  0  0
    0.3943    1.2135    0.0000 S   0  0  0  0  0  0  0  0  0  0  0  0
   -1.0323    0.7500    0.0000 C   0  0  0  0  0  0  0  0  0  0  0  0
   -2.5323    0.7500    0.0000 C   0  0  0  0  0  0  0  0  0  0  0  0
   -3.5929    1.8107    0.0000 N   0  0  0  0  0  0  0  0  0  0  0  0
   -3.2047    3.2595    0.0000 C   0  0  0  0  0  0  0  0  0  0  0  0
   -1.7558    3.6478    0.0000 O   0  0  0  0  0  0  0  0  0  0  0  0
   -4.2654    4.3202    0.0000 C   0  0  0  0  0  0  0  0  0  0  0  0
   -3.8771    5.7691    0.0000 C   0  0  0  0  0  0  0  0  0  0  0  0
   -2.4283    6.1573    0.0000 C   0  0  0  0  0  0  0  0  0  0  0  0
   -2.0400    7.6062    0.0000 C   0  0  0  0  0  0  0  0  0  0  0  0
   -3.1007    8.6669    0.0000 C   0  0  0  0  0  0  0  0  0  0  0  0
   -4.5496    8.2786    0.0000 C   0  0  0  0  0  0  0  0  0  0  0  0
   -4.9378    6.8298    0.0000 C   0  0  0  0  0  0  0  0  0  0  0  0
   -2.5323   -0.7500    0.0000 C   0  0  0  0  0  0  0  0  0  0  0  0
   -3.5929   -1.8107    0.0000 O   0  0  0  0  0  0  0  0  0  0  0  0
   -1.0323   -0.7500    0.0000 N   0  0  0  0  0  0  0  0  0  0  0  0
    0.3943   -1.2135    0.0000 C   0  0  0  0  0  0  0  0  0  0  0  0
    0.8578   -2.6401    0.0000 C   0  0  0  0  0  0  0  0  0  0  0  0
    2.3250   -2.9520    0.0000 O   0  0  0  0  0  0  0  0  0  0  0  0
   -0.1459   -3.7548    0.0000 O   0  0  0  0  0  0  0  0  0  0  0  0
  1  2  1  0
  2  3  1  0
  2  4  1  0
  5  4  1  1
  5  6  1  0
  6  7  1  1
  7  8  1  0
  8  9  2  0
  8 10  1  0
 10 11  1  0
 11 12  2  0
 12 13  1  0
 13 14  2  0
 14 15  1  0
 15 16  2  0
  6 17  1  0
 17 18  2  0
 17 19  1  0
 19 20  1  0
 20 21  1  6
 21 22  2  0
 21 23  1  0
 20  2  1  0
 19  5  1  0
 16 11  1  0
M  END
$$$$
674602
     RDKit          2D

 41 44  0  0  0  0  0  0  0  0999 V2000
    2.3907    1.0037    0.0000 C   0  0  0  0  0  0  0  0  0  0  0  0
    1.2760    0.0000    0.0000 C   0  0  0  0  0  0  0  0  0  0  0  0
    2.3907   -1.0037    0.0000 C   0  0  0  0  0  0  0  0  0  0  0  0
    0.3943    1.2135    0.0000 S   0  0  0  0  0  0  0  0  0  0  0  0
   -1.0323    0.7500    0.0000 C   0  0  0  0  0  0  0  0  0  0  0  0
   -2.5323    0.7500    0.0000 C   0  0  0  0  0  0  0  0  0  0  0  0
   -3.5929    1.8107    0.0000 N   0  0  0  0  0  0  0  0  0  0  0  0
   -3.2047    3.2595    0.0000 C   0  0  0  0  0  0  0  0  0  0  0  0
   -1.7558    3.6478    0.0000 O   0  0  0  0  0  0  0  0  0  0  0  0
   -4.2654    4.3202    0.0000 C   0  0  0  0  0  0  0  0  0  0  0  0
   -3.8771    5.7691    0.0000 C   0  0  0  0  0  0  0  0  0  0  0  0
   -2.4283    6.1573    0.0000 C   0  0  0  0  0  0  0  0  0  0  0  0
   -2.0400    7.6062    0.0000 C   0  0  0  0  0  0  0  0  0  0  0  0
   -3.1007    8.6669    0.0000 C   0  0  0  0  0  0  0  0  0  0  0  0
   -4.5496    8.2786    0.0000 C   0  0  0  0  0  0  0  0  0  0  0  0
   -4.9378    6.8298    0.0000 C   0  0  0  0  0  0  0  0  0  0  0  0
   -2.5323   -0.7500    0.0000 C   0  0  0  0  0  0  0  0  0  0  0  0
   -3.5929   -1.8107    0.0000 O   0  0  0  0  0  0  0  0  0  0  0  0
   -1.0323   -0.7500    0.0000 N   0  0  0  0  0  0  0  0  0  0  0  0
    0.3943   -1.2135    0.0000 C   0  0  0  0  0  0  0  0  0  0  0  0
    0.8578   -2.6401    0.0000 C   0  0  0  0  0  0  0  0  0  0  0  0
    2.3250   -2.9520    0.0000 O   0  0  0  0  0  0  0  0  0  0  0  0
   -0.1459   -3.7548    0.0000 O   0  0  0  0  0  0  0  0  0  0  0  0
    5.6407   -6.4952    0.0000 C   0  0  0  0  0  0  0  0  0  0  0  0
    6.3907   -5.1962    0.0000 C   0  0  0  0  0  0  0  0  0  0  0  0
    5.6407   -3.8971    0.0000 N   0  0  0  0  0  0  0  0  0  0  0  0
    6.3907   -2.5981    0.0000 C   0  0  0  0  0  0  0  0  0  0  0  0
    5.6407   -1.2990    0.0000 C   0  0  0  0  0  0  0  0  0  0  0  0
    6.3907    0.0000    0.0000 C   0  0  0  0  0  0  0  0  0  0  0  0
    5.6407    1.2990    0.0000 C   0  0  0  0  0  0  0  0  0  0  0  0
    4.1407    1.2990    0.0000 C   0  0  0  0  0  0  0  0  0  0  0  0
    3.3907    0.0000    0.0000 C   0  0  0  0  0  0  0  0  0  0  0  0
    4.1407   -1.2990    0.0000 C   0  0  0  0  0  0  0  0  0  0  0  0
    6.3907   -7.7942    0.0000 N   0  0  0  0  0  0  0  0  0  0  0  0
    5.6407   -9.0933    0.0000 C   0  0  0  0  0  0  0  0  0  0  0  0
    6.3907  -10.3923    0.0000 C   0  0  0  0  0  0  0  0  0  0  0  0
    5.6407  -11.6913    0.0000 C   0  0  0  0  0  0  0  0  0  0  0  0
    6.3907  -12.9904    0.0000 C   0  0  0  0  0  0  0  0  0  0  0  0
    7.8907  -12.9904    0.0000 C   0  0  0  0  0  0  0  0  0  0  0  0
    8.6407  -11.6913    0.0000 C   0  0  0  0  0  0  0  0  0  0  0  0
    7.8907  -10.3923    0.0000 C   0  0  0  0  0  0  0  0  0  0  0  0
  1  2  1  0
  2  3  1  0
  2  4  1  0
  5  4  1  1
  5  6  1  0
  6  7  1  1
  7  8  1  0
  8  9  2  0
  8 10  1  0
 10 11  1  0
 11 12  2  0
 12 13  1  0
 13 14  2  0
 14 15  1  0
 15 16  2  0
  6 17  1  0
 17 18  2  0
 17 19  1  0
 19 20  1  0
 20 21  1  6
 21 22  2  0
 21 23  1  0
 24 25  1  0
 25 26  1  0
 26 27  1  0
 27 28  1  0
 28 29  2  0
 29 30  1  0
 30 31  2  0
 31 32  1  0
 32 33  2  0
 24 34  1  0
 34 35  1  0
 35 36  1  0
 36 37  2  0
 37 38  1  0
 38 39  2  0
 39 40  1  0
 40 41  2  0
 20  2  1  0
 19  5  1  0
 16 11  1  0
 33 28  1  0
 41 36  1  0
M  END
$$$$
24806
     RDKit          2D

 24 26  0  0  0  0  0  0  0  0999 V2000
    2.3907    1.0037    0.0000 C   0  0  0  0  0  0  0  0  0  0  0  0
    1.2760    0.0000    0.0000 C   0  0  0  0  0  0  0  0  0  0  0  0
    2.3907   -1.0037    0.0000 C   0  0  0  0  0  0  0  0  0  0  0  0
    0.3943    1.2135    0.0000 S   0  0  0  0  0  0  0  0  0  0  0  0
   -1.0323    0.7500    0.0000 C   0  0  0  0  0  0  0  0  0  0  0  0
   -2.5323    0.7500    0.0000 C   0  0  0  0  0  0  0  0  0  0  0  0
   -3.5929    1.8107    0.0000 N   0  0  0  0  0  0  0  0  0  0  0  0
   -3.2047    3.2595    0.0000 C   0  0  0  0  0  0  0  0  0  0  0  0
   -1.7558    3.6478    0.0000 O   0  0  0  0  0  0  0  0  0  0  0  0
   -4.2654    4.3202    0.0000 C   0  0  0  0  0  0  0  0  0  0  0  0
   -3.8771    5.7691    0.0000 O   0  0  0  0  0  0  0  0  0  0  0  0
   -4.9378    6.8298    0.0000 C   0  0  0  0  0  0  0  0  0  0  0  0
   -4.5496    8.2786    0.0000 C   0  0  0  0  0  0  0  0  0  0  0  0
   -5.6102    9.3393    0.0000 C   0  0  0  0  0  0  0  0  0  0  0  0
   -7.0591    8.9511    0.0000 C   0  0  0  0  0  0  0  0  0  0  0  0
   -7.4474    7.5022    0.0000 C   0  0  0  0  0  0  0  0  0  0  0  0
   -6.3867    6.4415    0.0000 C   0  0  0  0  0  0  0  0  0  0  0  0
   -2.5323   -0.7500    0.0000 C   0  0  0  0  0  0  0  0  0  0  0  0
   -3.5929   -1.8107    0.0000 O   0  0  0  0  0  0  0  0  0  0  0  0
   -1.0323   -0.7500    0.0000 N   0  0  0  0  0  0  0  0  0  0  0  0
    0.3943   -1.2135    0.0000 C   0  0  0  0  0  0  0  0  0  0  0  0
    0.8578   -2.6401    0.0000 C   0  0  0  0  0  0  0  0  0  0  0  0
    2.3250   -2.9520    0.0000 O   0  0  0  0  0  0  0  0  0  0  0  0
   -0.1459   -3.7548    0.0000 O   0  0  0  0  0  0  0  0  0  0  0  0
  1  2  1  0
  2  3  1  0
  2  4  1  0
  5  4  1  1
  5  6  1  0
  6  7  1  1
  7  8  1  0
  8  9  2  0
  8 10  1  0
 10 11  1  0
 11 12  1  0
 12 13  2  0
 13 14  1  0
 14 15  2  0
 15 16  1  0
 16 17  2  0
  6 18  1  0
 18 19  2  0
 18 20  1  0
 20 21  1  0
 21 22  1  6
 22 23  2  0
 22 24  1  0
 21  2  1  0
 20  5  1  0
 17 12  1  0
M  END
$$$$
143284
     RDKit          2D

 25 27  0  0  0  0  0  0  0  0999 V2000
    2.3907    1.0037    0.0000 C   0  0  0  0  0  0  0  0  0  0  0  0
    1.2760    0.0000    0.0000 C   0  0  0  0  0  0  0  0  0  0  0  0
    2.3907   -1.0037    0.0000 C   0  0  0  0  0  0  0  0  0  0  0  0
    0.3943    1.2135    0.0000 S   0  0  0  0  0  0  0  0  0  0  0  0
   -1.0323    0.7500    0.0000 C   0  0  0  0  0  0  0  0  0  0  0  0
   -2.5323    0.7500    0.0000 C   0  0  0  0  0  0  0  0  0  0  0  0
   -3.5929    1.8107    0.0000 N   0  0  0  0  0  0  0  0  0  0  0  0
   -3.2047    3.2595    0.0000 C   0  0  0  0  0  0  0  0  0  0  0  0
   -1.7558    3.6478    0.0000 O   0  0  0  0  0  0  0  0  0  0  0  0
   -4.2654    4.3202    0.0000 C   0  0  0  0  0  0  0  0  0  0  0  0
   -5.7143    3.9320    0.0000 N   0  0  0  0  0  0  0  0  0  0  0  0
   -3.8771    5.7691    0.0000 C   0  0  0  0  0  0  0  0  0  0  0  0
   -2.4283    6.1573    0.0000 C   0  0  0  0  0  0  0  0  0  0  0  0
   -2.0400    7.6062    0.0000 C   0  0  0  0  0  0  0  0  0  0  0  0
   -3.1007    8.6669    0.0000 C   0  0  0  0  0  0  0  0  0  0  0  0
   -2.7125   10.1158    0.0000 O   0  0  0  0  0  0  0  0  0  0  0  0
   -4.5496    8.2786    0.0000 C   0  0  0  0  0  0  0  0  0  0  0  0
   -4.9378    6.8298    0.0000 C   0  0  0  0  0  0  0  0  0  0  0  0
   -2.5323   -0.7500    0.0000 C   0  0  0  0  0  0  0  0  0  0  0  0
   -3.5929   -1.8107    0.0000 O   0  0  0  0  0  0  0  0  0  0  0  0
   -1.0323   -0.7500    0.0000 N   0  0  0  0  0  0  0  0  0  0  0  0
    0.3943   -1.2135    0.0000 C   0  0  0  0  0  0  0  0  0  0  0  0
    0.8578   -2.6401    0.0000 C   0  0  0  0  0  0  0  0  0  0  0  0
    2.3250   -2.9520    0.0000 O   0  0  0  0  0  0  0  0  0  0  0  0
   -0.1459   -3.7548    0.0000 O   0  0  0  0  0  0  0  0  0  0  0  0
  1  2  1  0
  2  3  1  0
  2  4  1  0
  5  4  1  1
  5  6  1  0
  6  7  1  1
  7  8  1  0
  8  9  2  0
  8 10  1  0
 10 11  1  6
 10 12  1  0
 12 13  2  0
 13 14  1  0
 14 15  2  0
 15 16  1  0
 15 17  1  0
 17 18  2  0
  6 19  1  0
 19 20  2  0
 19 21  1  0
 21 22  1  0
 22 23  1  6
 23 24  2  0
 23 25  1  0
 22  2  1  0
 21  5  1  0
 18 12  1  0
M  END
$$$$
305519
     RDKit          2D

 24 26  0  0  0  0  0  0  0  0999 V2000
    2.3907    1.0037    0.0000 C   0  0  0  0  0  0  0  0  0  0  0  0
    1.2760    0.0000    0.0000 C   0  0  0  0  0  0  0  0  0  0  0  0
    2.3907   -1.0037    0.0000 C   0  0  0  0  0  0  0  0  0  0  0  0
    0.3943    1.2135    0.0000 S   0  0  0  0  0  0  0  0  0  0  0  0
   -1.0323    0.7500    0.0000 C   0  0  0  0  0  0  0  0  0  0  0  0
   -2.5323    0.7500    0.0000 C   0  0  0  0  0  0  0  0  0  0  0  0
   -3.5929    1.8107    0.0000 N   0  0  0  0  0  0  0  0  0  0  0  0
   -3.2047    3.2595    0.0000 C   0  0  0  0  0  0  0  0  0  0  0  0
   -1.7558    3.6478    0.0000 O   0  0  0  0  0  0  0  0  0  0  0  0
   -4.2654    4.3202    0.0000 C   0  0  0  0  0  0  0  0  0  0  0  0
   -5.7143    3.9320    0.0000 N   0  0  0  0  0  0  0  0  0  0  0  0
   -3.8771    5.7691    0.0000 C   0  0  0  0  0  0  0  0  0  0  0  0
   -2.4283    6.1573    0.0000 C   0  0  0  0  0  0  0  0  0  0  0  0
   -2.0400    7.6062    0.0000 C   0  0  0  0  0  0  0  0  0  0  0  0
   -3.1007    8.6669    0.0000 C   0  0  0  0  0  0  0  0  0  0  0  0
   -4.5496    8.2786    0.0000 C   0  0  0  0  0  0  0  0  0  0  0  0
   -4.9378    6.8298    0.0000 C   0  0  0  0  0  0  0  0  0  0  0  0
   -2.5323   -0.7500    0.0000 C   0  0  0  0  0  0  0  0  0  0  0  0
   -3.5929   -1.8107    0.0000 O   0  0  0  0  0  0  0  0  0  0  0  0
   -1.0323   -0.7500    0.0000 N   0  0  0  0  0  0  0  0  0  0  0  0
    0.3943   -1.2135    0.0000 C   0  0  0  0  0  0  0  0  0  0  0  0
    0.8578   -2.6401    0.0000 C   0  0  0  0  0  0  0  0  0  0  0  0
    2.3250   -2.9520    0.0000 O   0  0  0  0  0  0  0  0  0  0  0  0
   -0.1459   -3.7548    0.0000 O   0  0  0  0  0  0  0  0  0  0  0  0
  1  2  1  0
  2  3  1  0
  2  4  1  0
  5  4  1  1
  5  6  1  0
  6  7  1  1
  7  8  1  0
  8  9  2  0
  8 10  1  0
 10 11  1  6
 10 12  1  0
 12 13  2  0
 13 14  1  0
 14 15  2  0
 15 16  1  0
 16 17  2  0
  6 18  1  0
 18 19  2  0
 18 20  1  0
 20 21  1  0
 21 22  1  6
 22 23  2  0
 22 24  1  0
 21  2  1  0
 20  5  1  0
 17 12  1  0
M  END
$$$$
52523
     RDKit          2D

 13 15  0  0  0  0  0  0  0  0999 V2000
    1.5000   -2.5981    0.0000 C   0  0  0  0  0  0  0  0  0  0  0  0
    0.7500   -1.2990    0.0000 C   0  0  0  0  0  0  0  0  0  0  0  0
    1.5000    0.0000    0.0000 C   0  0  0  0  0  0  0  0  0  0  0  0
    0.7500    1.2990    0.0000 C   0  0  0  0  0  0  0  0  0  0  0  0
   -0.7500    1.2990    0.0000 C   0  0  0  0  0  0  0  0  0  0  0  0
   -1.5000    0.0000    0.0000 C   0  0  0  0  0  0  0  0  0  0  0  0
   -3.0000    0.0000    0.0000 C   0  0  0  0  0  0  0  0  0  0  0  0
   -0.7500   -1.2990    0.0000 C   0  0  0  0  0  0  0  0  0  0  0  0
    1.7010   -0.7500    0.0000 C   0  0  0  0  0  0  0  0  0  0  0  0
    3.0000   -0.0000    0.0000 C   0  0  0  0  0  0  0  0  0  0  0  0
    4.5000   -0.0000    0.0000 N   0  0  0  0  0  0  0  0  0  0  0  0
    2.2500    1.2990    0.0000 C   0  0  0  0  0  0  0  0  0  0  0  0
    2.2500   -1.2990    0.0000 C   0  0  0  0  0  0  0  0  0  0  0  0
  1  2  1  0
  2  3  1  0
  3  4  1  0
  4  5  1  0
  5  6  1  0
  6  7  1  0
  6  8  1  0
  6  9  1  0
  9 10  1  0
 10 11  1  0
 10 12  1  0
 10 13  1  0
  8  2  1  0
 13  2  1  0
 12  4  1  0
M  END
$$$$
468656
     RDKit          2D

 31 35  0  0  0  0  0  0  0  0999 V2000
   -1.5000   -5.1962    0.0000 C   0  0  0  0  0  0  0  0  0  0  0  0
   -0.7500   -3.8971    0.0000 C   0  0  0  0  0  0  0  0  0  0  0  0
    0.7500   -3.8971    0.0000 C   0  0  0  0  0  0  0  0  0  0  0  0
    1.5000   -5.1962    0.0000 C   0  0  0  0  0  0  0  0  0  0  0  0
    0.7500   -6.4952    0.0000 C   0  0  0  0  0  0  0  0  0  0  0  0
    1.5000   -7.7942    0.0000 N   0  0  0  0  0  0  0  0  0  0  0  0
    0.7500   -9.0933    0.0000 C   0  0  0  0  0  0  0  0  0  0  0  0
    1.5000  -10.3923    0.0000 C   0  0  0  0  0  0  0  0  0  0  0  0
    3.0000  -10.3923    0.0000 C   0  0  0  0  0  0  0  0  0  0  0  0
    3.7500   -9.0933    0.0000 C   0  0  0  0  0  0  0  0  0  0  0  0
    3.0000   -7.7942    0.0000 C   0  0  0  0  0  0  0  0  0  0  0  0
    3.7500  -11.6913    0.0000 C   0  0  0  0  0  0  0  0  0  0  0  0
    5.2418  -11.8481    0.0000 N   0  0  0  0  0  0  0  0  0  0  0  0
    5.5537  -13.3154    0.0000 O   0  0  0  0  0  0  0  0  0  0  0  0
    4.2546  -14.0654    0.0000 C   0  0  0  0  0  0  0  0  0  0  0  0
    3.9427  -15.5326    0.0000 C   0  0  0  0  0  0  0  0  0  0  0  0
    2.5162  -15.9961    0.0000 C   0  0  0  0  0  0  0  0  0  0  0  0
    2.2043  -17.4633    0.0000 F   0  0  0  0  0  0  0  0  0  0  0  0
    1.4014  -14.9924    0.0000 C   0  0  0  0  0  0  0  0  0  0  0  0
    1.7133  -13.5252    0.0000 C   0  0  0  0  0  0  0  0  0  0  0  0
    3.1399  -13.0617    0.0000 C   0  0  0  0  0  0  0  0  0  0  0  0
    1.5000   -2.5981    0.0000 C   0  0  0  0  0  0  0  0  0  0  0  0
    3.0000   -2.5981    0.0000 O   0  0  0  0  0  0  0  0  0  0  0  0
    0.7500   -1.2990    0.0000 N   0  0  0  0  0  0  0  0  0  0  0  0
    1.5000    0.0000    0.0000 C   0  0  0  0  0  0  0  0  0  0  0  0
    0.7500    1.2990    0.0000 C   0  0  0  0  0  0  0  0  0  0  0  0
   -0.7500    1.2990    0.0000 C   0  0  0  0  0  0  0  0  0  0  0  0
   -1.5000    0.0000    0.0000 C   0  0  0  0  0  0  0  0  0  0  0  0
   -3.0000    0.0000    0.0000 O   0  0  0  0  0  0  0  0  0  0  0  0
   -0.7500   -1.2990    0.0000 C   0  0  0  0  0  0  0  0  0  0  0  0
   -1.5000   -2.5981    0.0000 N   0  0  0  0  0  0  0  0  0  0  0  0
  1  2  1  0
  2  3  2  0
  3  4  1  0
  4  5  1  0
  5  6  1  0
  6  7  1  0
  7  8  1  0
  8  9  1  0
  9 10  1  0
 10 11  1  0
  9 12  1  0
 12 13  2  0
 13 14  1  0
 14 15  1  0
 15 16  2  0
 16 17  1  0
 17 18  1  0
 17 19  2  0
 19 20  1  0
 20 21  2  0
  3 22  1  0
 22 23  2  0
 22 24  1  0
 24 25  1  0
 25 26  1  0
 26 27  1  0
 27 28  1  0
 28 29  1  0
 28 30  1  0
 30 31  2  0
 31  2  1  0
 11  6  1  0
 21 12  1  0
 21 15  1  0
 30 24  1  0
M  END
$$$$
7714
     RDKit          2D

 30 34  0  0  0  0  0  0  0  0999 V2000
   -1.5000   -5.1962    0.0000 C   0  0  0  0  0  0  0  0  0  0  0  0
   -0.7500   -3.8971    0.0000 C   0  0  0  0  0  0  0  0  0  0  0  0
    0.7500   -3.8971    0.0000 C   0  0  0  0  0  0  0  0  0  0  0  0
    1.5000   -5.1962    0.0000 C   0  0  0  0  0  0  0  0  0  0  0  0
    0.7500   -6.4952    0.0000 C   0  0  0  0  0  0  0  0  0  0  0  0
    1.5000   -7.7942    0.0000 N   0  0  0  0  0  0  0  0  0  0  0  0
    0.7500   -9.0933    0.0000 C   0  0  0  0  0  0  0  0  0  0  0  0
    1.5000  -10.3923    0.0000 C   0  0  0  0  0  0  0  0  0  0  0  0
    3.0000  -10.3923    0.0000 C   0  0  0  0  0  0  0  0  0  0  0  0
    3.7500   -9.0933    0.0000 C   0  0  0  0  0  0  0  0  0  0  0  0
    3.0000   -7.7942    0.0000 C   0  0  0  0  0  0  0  0  0  0  0  0
    3.7500  -11.6913    0.0000 C   0  0  0  0  0  0  0  0  0  0  0  0
    5.2418  -11.8481    0.0000 N   0  0  0  0  0  0  0  0  0  0  0  0
    5.5537  -13.3154    0.0000 O   0  0  0  0  0  0  0  0  0  0  0  0
    4.2546  -14.0654    0.0000 C   0  0  0  0  0  0  0  0  0  0  0  0
    3.9427  -15.5326    0.0000 C   0  0  0  0  0  0  0  0  0  0  0  0
    2.5162  -15.9961    0.0000 C   0  0  0  0  0  0  0  0  0  0  0  0
    2.2043  -17.4633    0.0000 F   0  0  0  0  0  0  0  0  0  0  0  0
    1.4014  -14.9924    0.0000 C   0  0  0  0  0  0  0  0  0  0  0  0
    1.7133  -13.5252    0.0000 C   0  0  0  0  0  0  0  0  0  0  0  0
    3.1399  -13.0617    0.0000 C   0  0  0  0  0  0  0  0  0  0  0  0
    1.5000   -2.5981    0.0000 C   0  0  0  0  0  0  0  0  0  0  0  0
    3.0000   -2.5981    0.0000 O   0  0  0  0  0  0  0  0  0  0  0  0
    0.7500   -1.2990    0.0000 N   0  0  0  0  0  0  0  0  0  0  0  0
    1.5000    0.0000    0.0000 C   0  0  0  0  0  0  0  0  0  0  0  0
    0.7500    1.2990    0.0000 C   0  0  0  0  0  0  0  0  0  0  0  0
   -0.7500    1.2990    0.0000 C   0  0  0  0  0  0  0  0  0  0  0  0
   -1.5000    0.0000    0.0000 C   0  0  0  0  0  0  0  0  0  0  0  0
   -0.7500   -1.2990    0.0000 C   0  0  0  0  0  0  0  0  0  0  0  0
   -1.5000   -2.5981    0.0000 N   0  0  0  0  0  0  0  0  0  0  0  0
  1  2  1  0
  2  3  2  0
  3  4  1  0
  4  5  1  0
  5  6  1  0
  6  7  1  0
  7  8  1  0
  8  9  1  0
  9 10  1  0
 10 11  1  0
  9 12  1  0
 12 13  2  0
 13 14  1  0
 14 15  1  0
 15 16  2  0
 16 17  1  0
 17 18  1  0
 17 19  2  0
 19 20  1  0
 20 21  2  0
  3 22  1  0
 22 23  2  0
 22 24  1  0
 24 25  1  0
 25 26  1  0
 26 27  1  0
 27 28  1  0
 28 29  1  0
 29 30  2  0
 30  2  1  0
 11  6  1  0
 21 12  1  0
 21 15  1  0
 29 24  1  0
M  END
$$$$
454576
     RDKit          2D

 24 26  0  0  0  0  0  0  0  0999 V2000
    3.0000    0.0000    0.0000 C   0  0  0  0  0  0  0  0  0  0  0  0
    1.5000    0.0000    0.0000 C   0  0  0  0  0  0  0  0  0  0  0  0
    0.7500   -1.2990    0.0000 C   0  0  0  0  0  0  0  0  0  0  0  0
   -0.7500   -1.2990    0.0000 N   0  0  0  0  0  0  0  0  0  0  0  0
   -1.5000    0.0000    0.0000 C   0  0  0  0  0  0  0  0  0  0  0  0
   -0.7500    1.2990    0.0000 S   0  0  0  0  0  0  0  0  0  0  0  0
    0.7500    1.2990    0.0000 C   0  0  0  0  0  0  0  0  0  0  0  0
   -2.7990   -0.7500    0.0000 C   0  0  0  0  0  0  0  0  0  0  0  0
   -4.2479   -0.3618    0.0000 N   0  0  0  0  0  0  0  0  0  0  0  0
   -4.6362    1.0871    0.0000 C   0  0  0  0  0  0  0  0  0  0  0  0
   -3.5755    2.1478    0.0000 O   0  0  0  0  0  0  0  0  0  0  0  0
   -6.0850    1.4753    0.0000 C   0  0  0  0  0  0  0  0  0  0  0  0
   -7.1457    0.4147    0.0000 N   0  0  0  0  0  0  0  0  0  0  0  0
   -6.4733    2.9242    0.0000 C   0  0  0  0  0  0  0  0  0  0  0  0
   -5.4126    3.9849    0.0000 C   0  0  0  0  0  0  0  0  0  0  0  0
   -5.8008    5.4338    0.0000 C   0  0  0  0  0  0  0  0  0  0  0  0
   -7.2497    5.8220    0.0000 C   0  0  0  0  0  0  0  0  0  0  0  0
   -8.3104    4.7614    0.0000 C   0  0  0  0  0  0  0  0  0  0  0  0
   -7.9222    3.3125    0.0000 C   0  0  0  0  0  0  0  0  0  0  0  0
   -2.0490   -2.0490    0.0000 C   0  0  0  0  0  0  0  0  0  0  0  0
   -2.4373   -3.4979    0.0000 O   0  0  0  0  0  0  0  0  0  0  0  0
    1.5000   -2.5981    0.0000 C   0  0  0  0  0  0  0  0  0  0  0  0
    3.0000   -2.5981    0.0000 O   0  0  0  0  0  0  0  0  0  0  0  0
    0.7500   -3.8971    0.0000 O   0  0  0  0  0  0  0  0  0  0  0  0
  1  2  1  0
  2  3  2  0
  3  4  1  0
  4  5  1  0
  5  6  1  1
  6  7  1  0
  5  8  1  0
  8  9  1  1
  9 10  1  0
 10 11  2  0
 10 12  1  0
 12 13  1  6
 12 14  1  0
 14 15  2  0
 15 16  1  0
 16 17  1  0
 17 18  2  0
 18 19  1  0
  8 20  1  0
 20 21  2  0
  3 22  1  0
 22 23  2  0
 22 24  1  0
  7  2  1  0
 20  4  1  0
 19 14  1  0
M  END
$$$$
485902
     RDKit          2D

 25 27  0  0  0  0  0  0  0  0999 V2000
    3.0000    0.0000    0.0000 C   0  0  0  0  0  0  0  0  0  0  0  0
    1.5000    0.0000    0.0000 C   0  0  0  0  0  0  0  0  0  0  0  0
    0.7500   -1.2990    0.0000 C   0  0  0  0  0  0  0  0  0  0  0  0
   -0.7500   -1.2990    0.0000 N   0  0  0  0  0  0  0  0  0  0  0  0
   -1.5000    0.0000    0.0000 C   0  0  0  0  0  0  0  0  0  0  0  0
   -0.7500    1.2990    0.0000 S   0  0  0  0  0  0  0  0  0  0  0  0
    0.7500    1.2990    0.0000 C   0  0  0  0  0  0  0  0  0  0  0  0
   -2.7990   -0.7500    0.0000 C   0  0  0  0  0  0  0  0  0  0  0  0
   -4.2479   -0.3618    0.0000 N   0  0  0  0  0  0  0  0  0  0  0  0
   -4.6362    1.0871    0.0000 C   0  0  0  0  0  0  0  0  0  0  0  0
   -3.5755    2.1478    0.0000 O   0  0  0  0  0  0  0  0  0  0  0  0
   -6.0850    1.4753    0.0000 C   0  0  0  0  0  0  0  0  0  0  0  0
   -7.1457    0.4147    0.0000 N   0  0  0  0  0  0  0  0  0  0  0  0
   -6.4733    2.9242    0.0000 C   0  0  0  0  0  0  0  0  0  0  0  0
   -5.4126    3.9849    0.0000 C   0  0  0  0  0  0  0  0  0  0  0  0
   -5.8008    5.4338    0.0000 C   0  0  0  0  0  0  0  0  0  0  0  0
   -7.2497    5.8220    0.0000 C   0  0  0  0  0  0  0  0  0  0  0  0
   -7.6380    7.2709    0.0000 O   0  0  0  0  0  0  0  0  0  0  0  0
   -8.3104    4.7614    0.0000 C   0  0  0  0  0  0  0  0  0  0  0  0
   -7.9222    3.3125    0.0000 C   0  0  0  0  0  0  0  0  0  0  0  0
   -2.0490   -2.0490    0.0000 C   0  0  0  0  0  0  0  0  0  0  0  0
   -2.4373   -3.4979    0.0000 O   0  0  0  0  0  0  0  0  0  0  0  0
    1.5000   -2.5981    0.0000 C   0  0  0  0  0  0  0  0  0  0  0  0
    3.0000   -2.5981    0.0000 O   0  0  0  0  0  0  0  0  0  0  0  0
    0.7500   -3.8971    0.0000 O   0  0  0  0  0  0  0  0  0  0  0  0
  1  2  1  0
  2  3  2  0
  3  4  1  0
  4  5  1  0
  5  6  1  1
  6  7  1  0
  5  8  1  0
  8  9  1  1
  9 10  1  0
 10 11  2  0
 10 12  1  0
 12 13  1  6
 12 14  1  0
 14 15  2  0
 15 16  1  0
 16 17  2  0
 17 18  1  0
 17 19  1  0
 19 20  2  0
  8 21  1  0
 21 22  2  0
  3 23  1  0
 23 24  2  0
 23 25  1  0
  7  2  1  0
 21  4  1  0
 20 14  1  0
M  END
$$$$
555972
     RDKit          2D

 24 26  0  0  0  0  0  0  0  0999 V2000
    3.0000    0.0000    0.0000 C   0  0  0  0  0  0  0  0  0  0  0  0
    1.5000    0.0000    0.0000 C   0  0  0  0  0  0  0  0  0  0  0  0
    0.7500   -1.2990    0.0000 C   0  0  0  0  0  0  0  0  0  0  0  0
   -0.7500   -1.2990    0.0000 N   0  0  0  0  0  0  0  0  0  0  0  0
   -1.5000    0.0000    0.0000 C   0  0  0  0  0  0  0  0  0  0  0  0
   -0.7500    1.2990    0.0000 S   0  0  0  0  0  0  0  0  0  0  0  0
    0.7500    1.2990    0.0000 C   0  0  0  0  0  0  0  0  0  0  0  0
   -2.7990   -0.7500    0.0000 C   0  0  0  0  0  0  0  0  0  0  0  0
   -4.2479   -0.3618    0.0000 N   0  0  0  0  0  0  0  0  0  0  0  0
   -4.6362    1.0871    0.0000 C   0  0  0  0  0  0  0  0  0  0  0  0
   -3.5755    2.1478    0.0000 O   0  0  0  0  0  0  0  0  0  0  0  0
   -6.0850    1.4753    0.0000 C   0  0  0  0  0  0  0  0  0  0  0  0
   -7.1457    0.4147    0.0000 N   0  0  0  0  0  0  0  0  0  0  0  0
   -6.4733    2.9242    0.0000 C   0  0  0  0  0  0  0  0  0  0  0  0
   -5.4126    3.9849    0.0000 C   0  0  0  0  0  0  0  0  0  0  0  0
   -5.8008    5.4338    0.0000 C   0  0  0  0  0  0  0  0  0  0  0  0
   -7.2497    5.8220    0.0000 C   0  0  0  0  0  0  0  0  0  0  0  0
   -8.3104    4.7614    0.0000 C   0  0  0  0  0  0  0  0  0  0  0  0
   -7.9222    3.3125    0.0000 C   0  0  0  0  0  0  0  0  0  0  0  0
   -2.0490   -2.0490    0.0000 C   0  0  0  0  0  0  0  0  0  0  0  0
   -2.4373   -3.4979    0.0000 O   0  0  0  0  0  0  0  0  0  0  0  0
    1.5000   -2.5981    0.0000 C   0  0  0  0  0  0  0  0  0  0  0  0
    3.0000   -2.5981    0.0000 O   0  0  0  0  0  0  0  0  0  0  0  0
    0.7500   -3.8971    0.0000 O   0  0  0  0  0  0  0  0  0  0  0  0
  1  2  1  0
  2  3  2  0
  3  4  1  0
  4  5  1  0
  5  6  1  1
  6  7  1  0
  5  8  1  0
  8  9  1  1
  9 10  1  0
 10 11  2  0
 10 12  1  0
 12 13  1  6
 12 14  1  0
 14 15  2  0
 15 16  1  0
 16 17  2  0
 17 18  1  0
 18 19  2  0
  8 20  1  0
 20 21  2  0
  3 22  1  0
 22 23  2  0
 22 24  1  0
  7  2  1  0
 20  4  1  0
 19 14  1  0
M  END
$$$$
418484
     RDKit          2D

 29 32  0  0  0  0  0  0  0  0999 V2000
   -5.2500   -1.2990    0.0000 C   0  0  0  0  0  0  0  0  0  0  0  0
   -3.7500   -1.2990    0.0000 C   0  0  0  0  0  0  0  0  0  0  0  0
   -3.0000   -2.5981    0.0000 C   0  0  0  0  0  0  0  0  0  0  0  0
   -1.5000   -2.5981    0.0000 O   0  0  0  0  0  0  0  0  0  0  0  0
   -0.7500   -1.2990    0.0000 C   0  0  0  0  0  0  0  0  0  0  0  0
    0.7500   -1.2990    0.0000 C   0  0  0  0  0  0  0  0  0  0  0  0
    1.5000    0.0000    0.0000 C   0  0  0  0  0  0  0  0  0  0  0  0
    0.7500    1.2990    0.0000 C   0  0  0  0  0  0  0  0  0  0  0  0
   -0.7500    1.2990    0.0000 C   0  0  0  0  0  0  0  0  0  0  0  0
   -1.5000    0.0000    0.0000 C   0  0  0  0  0  0  0  0  0  0  0  0
   -3.0000    0.0000    0.0000 C   0  0  0  0  0  0  0  0  0  0  0  0
   -3.7500    1.2990    0.0000 O   0  0  0  0  0  0  0  0  0  0  0  0
    1.5000   -2.5981    0.0000 C   0  0  0  0  0  0  0  0  0  0  0  0
    0.7500   -3.8971    0.0000 O   0  0  0  0  0  0  0  0  0  0  0  0
    3.0000   -2.5981    0.0000 O   0  0  0  0  0  0  0  0  0  0  0  0
    3.7500   -3.8971    0.0000 C   0  0  0  0  0  0  0  0  0  0  0  0
    5.2500   -3.8971    0.0000 C   0  0  0  0  0  0  0  0  0  0  0  0
    6.0000   -5.1962    0.0000 N   0  0  0  0  0  0  0  0  0  0  0  0
    5.2500   -6.4952    0.0000 C   0  0  0  0  0  0  0  0  0  0  0  0
    6.0000   -7.7942    0.0000 C   0  0  0  0  0  0  0  0  0  0  0  0
    7.5000   -7.7942    0.0000 C   0  0  0  0  0  0  0  0  0  0  0  0
    8.2500   -6.4952    0.0000 C   0  0  0  0  0  0  0  0  0  0  0  0
    7.5000   -5.1962    0.0000 C   0  0  0  0  0  0  0  0  0  0  0  0
   -3.7500   -3.8971    0.0000 C   0  0  0  0  0  0  0  0  0  0  0  0
   -5.2500   -3.8971    0.0000 C   0  0  0  0  0  0  0  0  0  0  0  0
   -6.0000   -5.1962    0.0000 C   0  0  0  0  0  0  0  0  0  0  0  0
   -5.2500   -6.4952    0.0000 C   0  0  0  0  0  0  0  0  0  0  0  0
   -3.7500   -6.4952    0.0000 C   0  0  0  0  0  0  0  0  0  0  0  0
   -3.0000   -5.1962    0.0000 C   0  0  0  0  0  0  0  0  0  0  0  0
  1  2  1  0
  2  3  2  0
  3  4  1  0
  4  5  1  0
  5  6  2  0
  6  7  1  0
  7  8  2  0
  8  9  1  0
  9 10  2  0
 10 11  1  0
 11 12  2  0
  6 13  1  0
 13 14  2  0
 13 15  1  0
 15 16  1  0
 16 17  1  0
 17 18  1  0
 18 19  1  0
 19 20  1  0
 20 21  1  0
 21 22  1  0
 22 23  1  0
  3 24  1  0
 24 25  2  0
 25 26  1  0
 26 27  2  0
 27 28  1  0
 28 29  2  0
 11  2  1  0
 10  5  1  0
 23 18  1  0
 29 24  1  0
M  END
$$$$
402531
     RDKit          2D

 17 19  0  0  0  0  0  0  0  0999 V2000
   -4.3764    3.7611    0.0000 C   0  0  0  0  0  0  0  0  0  0  0  0
   -2.9499    4.2246    0.0000 C   0  0  0  0  0  0  0  0  0  0  0  0
   -2.6380    5.6918    0.0000 C   0  0  0  0  0  0  0  0  0  0  0  0
   -1.2114    6.1554    0.0000 C   0  0  0  0  0  0  0  0  0  0  0  0
   -0.8995    7.6226    0.0000 O   0  0  0  0  0  0  0  0  0  0  0  0
   -0.0967    5.1517    0.0000 O   0  0  0  0  0  0  0  0  0  0  0  0
   -0.4086    3.6844    0.0000 C   0  0  0  0  0  0  0  0  0  0  0  0
    0.7062    2.6807    0.0000 C   0  0  0  0  0  0  0  0  0  0  0  0
    2.1328    3.1443    0.0000 C   0  0  0  0  0  0  0  0  0  0  0  0
    0.3943    1.2135    0.0000 C   0  0  0  0  0  0  0  0  0  0  0  0
    1.2760    0.0000    0.0000 O   0  0  0  0  0  0  0  0  0  0  0  0
    0.3943   -1.2135    0.0000 C   0  0  0  0  0  0  0  0  0  0  0  0
    0.8578   -2.6401    0.0000 C   0  0  0  0  0  0  0  0  0  0  0  0
   -1.0323   -0.7500    0.0000 C   0  0  0  0  0  0  0  0  0  0  0  0
   -1.0323    0.7500    0.0000 C   0  0  0  0  0  0  0  0  0  0  0  0
   -2.1470    1.7537    0.0000 C   0  0  0  0  0  0  0  0  0  0  0  0
   -1.8351    3.2209    0.0000 C   0  0  0  0  0  0  0  0  0  0  0  0
  1  2  1  0
  2  3  2  0
  3  4  1  0
  4  5  2  0
  4  6  1  0
  6  7  1  0
  7  8  2  0
  8  9  1  0
  8 10  1  0
 10 11  1  0
 11 12  1  0
 12 13  1  0
 12 14  2  0
 14 15  1  0
 15 16  1  0
 16 17  2  0
 17  2  1  0
 17  7  1  0
 15 10  2  0
M  END
$$$$
705377
     RDKit          2D

 14 15  0  0  0  0  0  0  0  0999 V2000
    3.0000    0.0000    0.0000 C   0  0  0  0  0  0  0  0  0  0  0  0
    1.5000    0.0000    0.0000 C   0  0  0  0  0  0  0  0  0  0  0  0
    0.7500   -1.2990    0.0000 C   0  0  0  0  0  0  0  0  0  0  0  0
   -0.7500   -1.2990    0.0000 N   0  0  0  0  0  0  0  0  0  0  0  0
   -1.5000    0.0000    0.0000 C   0  0  0  0  0  0  0  0  0  0  0  0
   -3.0000    0.0000    0.0000 O   0  0  0  0  0  0  0  0  0  0  0  0
   -0.7500    1.2990    0.0000 C   0  0  0  0  0  0  0  0  0  0  0  0
    0.7500    1.2990    0.0000 C   0  0  0  0  0  0  0  0  0  0  0  0
   -1.5000   -2.5981    0.0000 C   0  0  0  0  0  0  0  0  0  0  0  0
   -3.0000   -2.5981    0.0000 C   0  0  0  0  0  0  0  0  0  0  0  0
   -3.7500   -3.8971    0.0000 C   0  0  0  0  0  0  0  0  0  0  0  0
   -3.0000   -5.1962    0.0000 C   0  0  0  0  0  0  0  0  0  0  0  0
   -1.5000   -5.1962    0.0000 C   0  0  0  0  0  0  0  0  0  0  0  0
   -0.7500   -3.8971    0.0000 C   0  0  0  0  0  0  0  0  0  0  0  0
  1  2  1  0
  2  3  2  0
  3  4  1  0
  4  5  1  0
  5  6  2  0
  5  7  1  0
  7  8  2  0
  4  9  1  0
  9 10  2  0
 10 11  1  0
 11 12  2  0
 12 13  1  0
 13 14  2  0
  8  2  1  0
 14  9  1  0
M  END
$$$$
366271
     RDKit          2D

 17 18  0  0  0  0  0  0  0  0999 V2000
    3.0000    0.0000    0.0000 C   0  0  0  0  0  0  0  0  0  0  0  0
    1.5000    0.0000    0.0000 C   0  0  0  0  0  0  0  0  0  0  0  0
    0.7500   -1.2990    0.0000 C   0  0  0  0  0  0  0  0  0  0  0  0
   -0.7500   -1.2990    0.0000 N   0  0  0  0  0  0  0  0  0  0  0  0
   -1.5000   -2.5981    0.0000 C   0  0  0  0  0  0  0  0  0  0  0  0
   -0.8899   -3.9684    0.0000 C   0  0  0  0  0  0  0  0  0  0  0  0
   -2.0046   -4.9721    0.0000 C   0  0  0  0  0  0  0  0  0  0  0  0
   -1.8478   -6.4639    0.0000 O   0  0  0  0  0  0  0  0  0  0  0  0
   -3.3037   -4.2221    0.0000 C   0  0  0  0  0  0  0  0  0  0  0  0
   -4.6740   -4.8322    0.0000 C   0  0  0  0  0  0  0  0  0  0  0  0
   -5.8875   -3.9505    0.0000 O   0  0  0  0  0  0  0  0  0  0  0  0
   -2.9918   -2.7549    0.0000 O   0  0  0  0  0  0  0  0  0  0  0  0
   -1.5000    0.0000    0.0000 C   0  0  0  0  0  0  0  0  0  0  0  0
   -3.0000    0.0000    0.0000 O   0  0  0  0  0  0  0  0  0  0  0  0
   -0.7500    1.2990    0.0000 N   0  0  0  0  0  0  0  0  0  0  0  0
    0.7500    1.2990    0.0000 C   0  0  0  0  0  0  0  0  0  0  0  0
    1.5000    2.5981    0.0000 O   0  0  0  0  0  0  0  0  0  0  0  0
  1  2  1  0
  2  3  2  0
  3  4  1  0
  5  4  1  6
  5  6  1  0
  6  7  1  0
  7  8  1  1
  7  9  1  0
  9 10  1  6
 10 11  1  0
  9 12  1  0
  4 13  1  0
 13 14  2  0
 13 15  1  0
 15 16  1  0
 16 17  2  0
 16  2  1  0
 12  5  1  0
M  END
$$$$
107119
     RDKit          2D

 16 17  0  0  0  0  0  0  0  0999 V2000
    3.0000    0.0000    0.0000 C   0  0  0  0  0  0  0  0  0  0  0  0
    1.5000    0.0000    0.0000 C   0  0  0  0  0  0  0  0  0  0  0  0
    0.7500   -1.2990    0.0000 C   0  0  0  0  0  0  0  0  0  0  0  0
   -0.7500   -1.2990    0.0000 N   0  0  0  0  0  0  0  0  0  0  0  0
   -1.5000   -2.5981    0.0000 C   0  0  0  0  0  0  0  0  0  0  0  0
   -0.8899   -3.9684    0.0000 O   0  0  0  0  0  0  0  0  0  0  0  0
   -2.0046   -4.9721    0.0000 C   0  0  0  0  0  0  0  0  0  0  0  0
   -1.8478   -6.4639    0.0000 C   0  0  0  0  0  0  0  0  0  0  0  0
   -3.0613   -7.3456    0.0000 O   0  0  0  0  0  0  0  0  0  0  0  0
   -3.3037   -4.2221    0.0000 C   0  0  0  0  0  0  0  0  0  0  0  0
   -2.9918   -2.7549    0.0000 C   0  0  0  0  0  0  0  0  0  0  0  0
   -1.5000    0.0000    0.0000 C   0  0  0  0  0  0  0  0  0  0  0  0
   -3.0000    0.0000    0.0000 O   0  0  0  0  0  0  0  0  0  0  0  0
   -0.7500    1.2990    0.0000 N   0  0  0  0  0  0  0  0  0  0  0  0
    0.7500    1.2990    0.0000 C   0  0  0  0  0  0  0  0  0  0  0  0
    1.5000    2.5981    0.0000 O   0  0  0  0  0  0  0  0  0  0  0  0
  1  2  1  0
  2  3  2  0
  3  4  1  0
  5  4  1  6
  5  6  1  0
  6  7  1  0
  7  8  1  6
  8  9  1  0
  7 10  1  0
 10 11  2  0
  4 12  1  0
 12 13  2  0
 12 14  1  0
 14 15  1  0
 15 16  2  0
 15  2  1  0
 11  5  1  0
M  END
$$$$
27307
     RDKit          2D

 19 20  0  0  0  0  0  0  0  0999 V2000
    3.0000    0.0000    0.0000 C   0  0  0  0  0  0  0  0  0  0  0  0
    1.5000    0.0000    0.0000 C   0  0  0  0  0  0  0  0  0  0  0  0
    0.7500   -1.2990    0.0000 C   0  0  0  0  0  0  0  0  0  0  0  0
   -0.7500   -1.2990    0.0000 N   0  0  0  0  0  0  0  0  0  0  0  0
   -1.5000   -2.5981    0.0000 C   0  0  0  0  0  0  0  0  0  0  0  0
   -0.8899   -3.9684    0.0000 C   0  0  0  0  0  0  0  0  0  0  0  0
   -2.0046   -4.9721    0.0000 C   0  0  0  0  0  0  0  0  0  0  0  0
   -1.8478   -6.4639    0.0000 N   0  0  0  0  0  0  0  0  0  0  0  0
   -3.0613   -7.3456    0.0000 N   0  0  0  0  0  4  0  0  0  0  0  0
   -4.2749   -8.2272    0.0000 N   0  0  0  0  0  2  0  0  0  0  0  0
   -3.3037   -4.2221    0.0000 C   0  0  0  0  0  0  0  0  0  0  0  0
   -4.6740   -4.8322    0.0000 C   0  0  0  0  0  0  0  0  0  0  0  0
   -5.8875   -3.9505    0.0000 O   0  0  0  0  0  0  0  0  0  0  0  0
   -2.9918   -2.7549    0.0000 O   0  0  0  0  0  0  0  0  0  0  0  0
   -1.5000    0.0000    0.0000 C   0  0  0  0  0  0  0  0  0  0  0  0
   -3.0000    0.0000    0.0000 O   0  0  0  0  0  0  0  0  0  0  0  0
   -0.7500    1.2990    0.0000 N   0  0  0  0  0  0  0  0  0  0  0  0
    0.7500    1.2990    0.0000 C   0  0  0  0  0  0  0  0  0  0  0  0
    1.5000    2.5981    0.0000 O   0  0  0  0  0  0  0  0  0  0  0  0
  1  2  1  0
  2  3  2  0
  3  4  1  0
  5  4  1  1
  5  6  1  0
  6  7  1  0
  7  8  1  6
  8  9  2  0
  9 10  2  0
  7 11  1  0
 11 12  1  1
 12 13  1  0
 11 14  1  0
  4 15  1  0
 15 16  2  0
 15 17  1  0
 17 18  1  0
 18 19  2  0
 18  2  1  0
 14  5  1  0
M  CHG  2   9   1  10  -1
M  END
$$$$
457398
     RDKit          2D

 33 36  0  0  0  0  0  0  0  0999 V2000
   -0.5773   -6.8783    0.0000 C   0  0  0  0  0  0  0  0  0  0  0  0
    0.8899   -6.5665    0.0000 C   0  0  0  0  0  0  0  0  0  0  0  0
    2.0046   -7.5702    0.0000 N   0  0  0  0  0  0  0  0  0  0  0  0
    3.3037   -6.8202    0.0000 N   0  0  0  0  0  0  0  0  0  0  0  0
    2.9918   -5.3529    0.0000 C   0  0  0  0  0  0  0  0  0  0  0  0
    3.9955   -4.2382    0.0000 O   0  0  0  0  0  0  0  0  0  0  0  0
    1.5000   -5.1962    0.0000 C   0  0  0  0  0  0  0  0  0  0  0  0
    0.7500   -3.8971    0.0000 N   0  0  0  0  0  0  0  0  0  0  0  0
    1.5000   -2.5981    0.0000 N   0  0  0  0  0  0  0  0  0  0  0  0
    0.7500   -1.2990    0.0000 C   0  0  0  0  0  0  0  0  0  0  0  0
    1.5000    0.0000    0.0000 C   0  0  0  0  0  0  0  0  0  0  0  0
    0.7500    1.2990    0.0000 C   0  0  0  0  0  0  0  0  0  0  0  0
   -0.7500    1.2990    0.0000 C   0  0  0  0  0  0  0  0  0  0  0  0
   -1.5000    0.0000    0.0000 C   0  0  0  0  0  0  0  0  0  0  0  0
   -0.7500   -1.2990    0.0000 C   0  0  0  0  0  0  0  0  0  0  0  0
   -1.5000   -2.5981    0.0000 O   0  0  0  0  0  0  0  0  0  0  0  0
   -3.0000    0.0000    0.0000 C   0  0  0  0  0  0  0  0  0  0  0  0
   -3.7500    1.2990    0.0000 C   0  0  0  0  0  0  0  0  0  0  0  0
   -5.2500    1.2990    0.0000 C   0  0  0  0  0  0  0  0  0  0  0  0
   -6.0000    0.0000    0.0000 C   0  0  0  0  0  0  0  0  0  0  0  0
   -5.2500   -1.2990    0.0000 C   0  0  0  0  0  0  0  0  0  0  0  0
   -3.7500   -1.2990    0.0000 C   0  0  0  0  0  0  0  0  0  0  0  0
   -6.0000   -2.5981    0.0000 C   0  0  0  0  0  0  0  0  0  0  0  0
   -5.2500   -3.8971    0.0000 O   0  0  0  0  0  0  0  0  0  0  0  0
   -7.5000   -2.5981    0.0000 O   0  0  0  0  0  0  0  0  0  0  0  0
    4.6740   -7.4303    0.0000 C   0  0  0  0  0  0  0  0  0  0  0  0
    4.8308   -8.9221    0.0000 C   0  0  0  0  0  0  0  0  0  0  0  0
    6.2011   -9.5322    0.0000 C   0  0  0  0  0  0  0  0  0  0  0  0
    7.4146   -8.6505    0.0000 C   0  0  0  0  0  0  0  0  0  0  0  0
    8.7849   -9.2606    0.0000 C   0  0  0  0  0  0  0  0  0  0  0  0
    7.2578   -7.1587    0.0000 C   0  0  0  0  0  0  0  0  0  0  0  0
    8.4713   -6.2770    0.0000 C   0  0  0  0  0  0  0  0  0  0  0  0
    5.8875   -6.5486    0.0000 C   0  0  0  0  0  0  0  0  0  0  0  0
  1  2  1  0
  2  3  2  0
  3  4  1  0
  4  5  1  0
  5  6  2  0
  5  7  1  0
  7  8  2  0
  8  9  1  0
  9 10  1  0
 10 11  2  0
 11 12  1  0
 12 13  2  0
 13 14  1  0
 14 15  2  0
 15 16  1  0
 14 17  1  0
 17 18  2  0
 18 19  1  0
 19 20  2  0
 20 21  1  0
 21 22  2  0
 21 23  1  0
 23 24  2  0
 23 25  1  0
  4 26  1  0
 26 27  2  0
 27 28  1  0
 28 29  2  0
 29 30  1  0
 29 31  1  0
 31 32  1  0
 31 33  2  0
  7  2  1  0
 15 10  1  0
 22 17  1  0
 33 26  1  0
M  END
$$$$
457400
     RDKit          2D

 37 39  0  0  0  0  0  0  0  0999 V2000
   -0.5773   -6.8783    0.0000 C   0  0  0  0  0  0  0  0  0  0  0  0
    0.8899   -6.5665    0.0000 C   0  0  0  0  0  0  0  0  0  0  0  0
    2.0046   -7.5702    0.0000 N   0  0  0  0  0  0  0  0  0  0  0  0
    3.3037   -6.8202    0.0000 N   0  0  0  0  0  0  0  0  0  0  0  0
    2.9918   -5.3529    0.0000 C   0  0  0  0  0  0  0  0  0  0  0  0
    3.9955   -4.2382    0.0000 O   0  0  0  0  0  0  0  0  0  0  0  0
    1.5000   -5.1962    0.0000 C   0  0  0  0  0  0  0  0  0  0  0  0
    0.7500   -3.8971    0.0000 N   0  0  0  0  0  0  0  0  0  0  0  0
    1.5000   -2.5981    0.0000 N   0  0  0  0  0  0  0  0  0  0  0  0
    0.7500   -1.2990    0.0000 C   0  0  0  0  0  0  0  0  0  0  0  0
    1.5000    0.0000    0.0000 C   0  0  0  0  0  0  0  0  0  0  0  0
    0.7500    1.2990    0.0000 C   0  0  0  0  0  0  0  0  0  0  0  0
   -0.7500    1.2990    0.0000 C   0  0  0  0  0  0  0  0  0  0  0  0
   -1.5000    0.0000    0.0000 C   0  0  0  0  0  0  0  0  0  0  0  0
   -0.7500   -1.2990    0.0000 C   0  0  0  0  0  0  0  0  0  0  0  0
   -1.5000   -2.5981    0.0000 O   0  0  0  0  0  0  0  0  0  0  0  0
   -3.0000    0.0000    0.0000 C   0  0  0  0  0  0  0  0  0  0  0  0
   -3.7500    1.2990    0.0000 C   0  0  0  0  0  0  0  0  0  0  0  0
   -5.2500    1.2990    0.0000 C   0  0  0  0  0  0  0  0  0  0  0  0
   -6.0000    0.0000    0.0000 C   0  0  0  0  0  0  0  0  0  0  0  0
   -5.2500   -1.2990    0.0000 C   0  0  0  0  0  0  0  0  0  0  0  0
   -3.7500   -1.2990    0.0000 C   0  0  0  0  0  0  0  0  0  0  0  0
   -6.0000   -2.5981    0.0000 C   0  0  0  0  0  0  0  0  0  0  0  0
   -5.2500   -3.8971    0.0000 O   0  0  0  0  0  0  0  0  0  0  0  0
   -7.5000   -2.5981    0.0000 O   0  0  0  0  0  0  0  0  0  0  0  0
    4.6740   -7.4303    0.0000 C   0  0  0  0  0  0  0  0  0  0  0  0
    4.8308   -8.9221    0.0000 C   0  0  0  0  0  0  0  0  0  0  0  0
    6.2011   -9.5322    0.0000 C   0  0  0  0  0  0  0  0  0  0  0  0
    7.4146   -8.6505    0.0000 C   0  0  0  0  0  0  0  0  0  0  0  0
    8.7849   -9.2606    0.0000 C   0  0  0  0  0  0  0  0  0  0  0  0
    7.2578   -7.1587    0.0000 C   0  0  0  0  0  0  0  0  0  0  0  0
    8.4713   -6.2770    0.0000 C   0  0  0  0  0  0  0  0  0  0  0  0
    5.8875   -6.5486    0.0000 C   0  0  0  0  0  0  0  0  0  0  0  0
   -1.2990    3.0490    0.0000 N   0  0  0  0  0  0  0  0  0  0  0  0
    0.0000    2.2990    0.0000 C   0  0  0  0  0  0  0  0  0  0  0  0
    1.2990    3.0490    0.0000 C   0  0  0  0  0  0  0  0  0  0  0  0
    2.5981    2.2990    0.0000 O   0  0  0  0  0  0  0  0  0  0  0  0
  1  2  1  0
  2  3  2  0
  3  4  1  0
  4  5  1  0
  5  6  2  0
  5  7  1  0
  7  8  2  0
  8  9  1  0
  9 10  1  0
 10 11  2  0
 11 12  1  0
 12 13  2  0
 13 14  1  0
 14 15  2  0
 15 16  1  0
 14 17  1  0
 17 18  2  0
 18 19  1  0
 19 20  2  0
 20 21  1  0
 21 22  2  0
 21 23  1  0
 23 24  2  0
 23 25  1  0
  4 26  1  0
 26 27  2  0
 27 28  1  0
 28 29  2  0
 29 30  1  0
 29 31  1  0
 31 32  1  0
 31 33  2  0
 34 35  1  0
 35 36  1  0
 36 37  1  0
  7  2  1  0
 15 10  1  0
 22 17  1  0
 33 26  1  0
M  END
$$$$
364859
     RDKit          2D

 14 15  0  0  0  0  0  0  0  0999 V2000
   -1.5000   -5.1962    0.0000 C   0  0  0  0  0  0  0  0  0  0  0  0
   -0.7500   -3.8971    0.0000 C   0  0  0  0  0  0  0  0  0  0  0  0
    0.7500   -3.8971    0.0000 N   0  0  0  0  0  0  0  0  0  0  0  0
    1.5000   -2.5981    0.0000 S   0  0  0  0  0  0  0  0  0  0  0  0
    2.6491   -3.5623    0.0000 O   0  0  0  0  0  0  0  0  0  0  0  0
    2.6491   -1.6339    0.0000 O   0  0  0  0  0  0  0  0  0  0  0  0
    0.7500   -1.2990    0.0000 C   0  0  0  0  0  0  0  0  0  0  0  0
    1.5000    0.0000    0.0000 C   0  0  0  0  0  0  0  0  0  0  0  0
    0.7500    1.2990    0.0000 C   0  0  0  0  0  0  0  0  0  0  0  0
    1.5000    2.5981    0.0000 Cl  0  0  0  0  0  0  0  0  0  0  0  0
   -0.7500    1.2990    0.0000 C   0  0  0  0  0  0  0  0  0  0  0  0
   -1.5000    0.0000    0.0000 C   0  0  0  0  0  0  0  0  0  0  0  0
   -0.7500   -1.2990    0.0000 C   0  0  0  0  0  0  0  0  0  0  0  0
   -1.5000   -2.5981    0.0000 N   0  0  0  0  0  0  0  0  0  0  0  0
  1  2  1  0
  2  3  2  0
  3  4  1  0
  4  5  2  0
  4  6  2  0
  4  7  1  0
  7  8  2  0
  8  9  1  0
  9 10  1  0
  9 11  2  0
 11 12  1  0
 12 13  2  0
 13 14  1  0
 14  2  1  0
 13  7  1  0
M  END
$$$$
666
     RDKit          2D

 31 34  0  0  0  0  0  0  0  0999 V2000
    1.5000   -5.1962    0.0000 C   0  0  0  0  0  0  0  0  0  0  0  0
    0.7500   -3.8971    0.0000 C   0  0  0  0  0  0  0  0  0  0  0  0
    1.5000   -2.5981    0.0000 C   0  0  0  0  0  0  0  0  0  0  0  0
    3.0000   -2.5981    0.0000 C   0  0  0  0  0  0  0  0  0  0  0  0
    0.7500   -1.2990    0.0000 C   0  0  0  0  0  0  0  0  0  0  0  0
    1.5000    0.0000    0.0000 O   0  0  0  0  0  0  0  0  0  0  0  0
    0.7500    1.2990    0.0000 C   0  0  0  0  0  0  0  0  0  0  0  0
    0.4895    2.7762    0.0000 C   0  0  0  0  0  0  0  0  0  0  0  0
    2.1595    1.8121    0.0000 C   0  0  0  0  0  0  0  0  0  0  0  0
    3.3086    0.8479    0.0000 O   0  0  0  0  0  0  0  0  0  0  0  0
    4.7181    1.3609    0.0000 C   0  0  0  0  0  0  0  0  0  0  0  0
    5.8672    0.3967    0.0000 C   0  0  0  0  0  0  0  0  0  0  0  0
    7.2768    0.9098    0.0000 C   0  0  0  0  0  0  0  0  0  0  0  0
    7.5372    2.3870    0.0000 C   0  0  0  0  0  0  0  0  0  0  0  0
    8.9468    2.9000    0.0000 C   0  0  0  0  0  0  0  0  0  0  0  0
   10.0958    1.9358    0.0000 C   0  0  0  0  0  0  0  0  0  0  0  0
   11.5513    2.2987    0.0000 S   0  0  0  0  0  0  0  0  0  0  0  0
   12.3462    1.0266    0.0000 C   0  0  0  0  0  0  0  0  0  0  0  0
   13.8425    0.9220    0.0000 O   0  0  0  0  0  0  0  0  0  0  0  0
   11.3820   -0.1224    0.0000 N   0  0  0  0  0  0  0  0  0  0  0  0
    9.9912    0.4395    0.0000 C   0  0  0  0  0  0  0  0  0  0  0  0
    8.7191   -0.3554    0.0000 O   0  0  0  0  0  0  0  0  0  0  0  0
    6.3882    3.3512    0.0000 C   0  0  0  0  0  0  0  0  0  0  0  0
    4.9786    2.8381    0.0000 C   0  0  0  0  0  0  0  0  0  0  0  0
   -0.7500    1.2990    0.0000 C   0  0  0  0  0  0  0  0  0  0  0  0
   -1.5000    0.0000    0.0000 C   0  0  0  0  0  0  0  0  0  0  0  0
   -0.7500   -1.2990    0.0000 C   0  0  0  0  0  0  0  0  0  0  0  0
   -1.5000   -2.5981    0.0000 C   0  0  0  0  0  0  0  0  0  0  0  0
   -3.0000   -2.5981    0.0000 C   0  0  0  0  0  0  0  0  0  0  0  0
   -0.7500   -3.8971    0.0000 C   0  0  0  0  0  0  0  0  0  0  0  0
   -1.5000   -5.1962    0.0000 O   0  0  0  0  0  0  0  0  0  0  0  0
  1  2  1  0
  2  3  2  0
  3  4  1  0
  3  5  1  0
  5  6  1  0
  6  7  1  0
  7  8  1  0
  7  9  1  0
  9 10  1  0
 10 11  1  0
 11 12  2  0
 12 13  1  0
 13 14  2  0
 14 15  1  0
 15 16  1  0
 16 17  1  0
 17 18  1  0
 18 19  2  0
 18 20  1  0
 20 21  1  0
 21 22  2  0
 14 23  1  0
 23 24  2  0
  7 25  1  0
 25 26  1  0
 26 27  1  0
 27 28  1  0
 28 29  1  0
 28 30  2  0
 30 31  1  0
 30  2  1  0
 27  5  2  0
 24 11  1  0
 21 16  1  0
M  END
$$$$
65648
     RDKit          2D

 35 39  0  0  0  0  0  0  0  0999 V2000
   -2.6401   -3.1891    0.0000 C   0  0  0  0  0  0  0  0  0  0  0  0
   -1.2135   -2.7256    0.0000 C   0  0  0  0  0  0  0  0  0  0  0  0
   -0.0000   -3.6073    0.0000 C   0  0  0  0  0  0  0  0  0  0  0  0
   -0.0000   -5.1073    0.0000 C   0  0  0  0  0  0  0  0  0  0  0  0
   -1.2990   -5.8573    0.0000 C   0  0  0  0  0  0  0  0  0  0  0  0
   -1.2990   -7.3573    0.0000 C   0  0  0  0  0  0  0  0  0  0  0  0
   -0.0000   -8.1073    0.0000 C   0  0  0  0  0  0  0  0  0  0  0  0
   -0.0000   -9.6073    0.0000 O   0  0  0  0  0  0  0  0  0  0  0  0
    1.2990   -7.3573    0.0000 C   0  0  0  0  0  0  0  0  0  0  0  0
    1.2990   -5.8573    0.0000 C   0  0  0  0  0  0  0  0  0  0  0  0
    1.2135   -2.7256    0.0000 N   0  0  0  0  0  0  0  0  0  0  0  0
    2.6401   -3.1891    0.0000 C   0  0  0  0  0  0  0  0  0  0  0  0
    3.7548   -2.1855    0.0000 C   0  0  0  0  0  0  0  0  0  0  0  0
    5.1814   -2.6490    0.0000 C   0  0  0  0  0  0  0  0  0  0  0  0
    6.2961   -1.6453    0.0000 C   0  0  0  0  0  0  0  0  0  0  0  0
    5.9843   -0.1781    0.0000 C   0  0  0  0  0  0  0  0  0  0  0  0
    7.0990    0.8256    0.0000 O   0  0  0  0  0  0  0  0  0  0  0  0
    8.5256    0.3621    0.0000 C   0  0  0  0  0  0  0  0  0  0  0  0
    9.6403    1.3658    0.0000 C   0  0  0  0  0  0  0  0  0  0  0  0
   11.0669    0.9023    0.0000 N   0  0  0  0  0  0  0  0  0  0  0  0
   12.1035    1.9865    0.0000 C   0  0  0  0  0  0  0  0  0  0  0  0
   13.5974    1.8520    0.0000 C   0  0  0  0  0  0  0  0  0  0  0  0
   14.4238    0.6002    0.0000 C   0  0  0  0  0  0  0  0  0  0  0  0
   13.9602   -0.8264    0.0000 C   0  0  0  0  0  0  0  0  0  0  0  0
   12.5559   -1.3535    0.0000 C   0  0  0  0  0  0  0  0  0  0  0  0
   11.2682   -0.5841    0.0000 C   0  0  0  0  0  0  0  0  0  0  0  0
    4.5577    0.2855    0.0000 C   0  0  0  0  0  0  0  0  0  0  0  0
    3.4430   -0.7182    0.0000 C   0  0  0  0  0  0  0  0  0  0  0  0
    0.7500   -1.2990    0.0000 C   0  0  0  0  0  0  0  0  0  0  0  0
    1.5000    0.0000    0.0000 C   0  0  0  0  0  0  0  0  0  0  0  0
    0.7500    1.2990    0.0000 C   0  0  0  0  0  0  0  0  0  0  0  0
   -0.7500    1.2990    0.0000 C   0  0  0  0  0  0  0  0  0  0  0  0
   -1.5000    2.5981    0.0000 O   0  0  0  0  0  0  0  0  0  0  0  0
   -1.5000    0.0000    0.0000 C   0  0  0  0  0  0  0  0  0  0  0  0
   -0.7500   -1.2990    0.0000 C   0  0  0  0  0  0  0  0  0  0  0  0
  1  2  1  0
  2  3  2  0
  3  4  1  0
  4  5  2  0
  5  6  1  0
  6  7  2  0
  7  8  1  0
  7  9  1  0
  9 10  2  0
  3 11  1  0
 11 12  1  0
 12 13  1  0
 13 14  2  0
 14 15  1  0
 15 16  2  0
 16 17  1  0
 17 18  1  0
 18 19  1  0
 19 20  1  0
 20 21  1  0
 21 22  1  0
 22 23  1  0
 23 24  1  0
 24 25  1  0
 25 26  1  0
 16 27  1  0
 27 28  2  0
 11 29  1  0
 29 30  2  0
 30 31  1  0
 31 32  2  0
 32 33  1  0
 32 34  1  0
 34 35  2  0
 35  2  1  0
 10  4  1  0
 28 13  1  0
 26 20  1  0
 35 29  1  0
M  END
$$$$
17224
     RDKit          2D

 40 43  0  0  0  0  0  0  0  0999 V2000
    5.2500  -11.6913    0.0000 C   0  0  0  0  0  0  0  0  0  0  0  0
    3.7500  -11.6913    0.0000 C   0  0  0  0  0  0  0  0  0  0  0  0
    3.0000  -12.9904    0.0000 C   0  0  0  0  0  0  0  0  0  0  0  0
    3.7500  -14.2894    0.0000 O   0  0  0  0  0  0  0  0  0  0  0  0
    1.5000  -12.9904    0.0000 C   0  0  0  0  0  0  0  0  0  0  0  0
    0.7500  -11.6913    0.0000 C   0  0  0  0  0  0  0  0  0  0  0  0
    1.5000  -10.3923    0.0000 C   0  0  0  0  0  0  0  0  0  0  0  0
    3.0000  -10.3923    0.0000 C   0  0  0  0  0  0  0  0  0  0  0  0
    3.7500   -9.0933    0.0000 C   0  0  0  0  0  0  0  0  0  0  0  0
    5.2500   -9.0933    0.0000 O   0  0  0  0  0  0  0  0  0  0  0  0
    3.0000   -7.7942    0.0000 N   0  0  0  0  0  0  0  0  0  0  0  0
    3.7500   -6.4952    0.0000 C   0  0  0  0  0  0  0  0  0  0  0  0
    5.2500   -6.4952    0.0000 C   0  0  0  0  0  0  0  0  0  0  0  0
    6.0000   -7.7942    0.0000 S   0  0  0  0  0  0  0  0  0  0  0  0
    7.5000   -7.7942    0.0000 C   0  0  0  0  0  0  0  0  0  0  0  0
    8.2500   -9.0933    0.0000 C   0  0  0  0  0  0  0  0  0  0  0  0
    9.7500   -9.0933    0.0000 C   0  0  0  0  0  0  0  0  0  0  0  0
   10.5000   -7.7942    0.0000 C   0  0  0  0  0  0  0  0  0  0  0  0
    9.7500   -6.4952    0.0000 C   0  0  0  0  0  0  0  0  0  0  0  0
    8.2500   -6.4952    0.0000 C   0  0  0  0  0  0  0  0  0  0  0  0
    3.0000   -5.1962    0.0000 C   0  0  0  0  0  0  0  0  0  0  0  0
    3.7500   -3.8971    0.0000 O   0  0  0  0  0  0  0  0  0  0  0  0
    1.5000   -5.1962    0.0000 C   0  0  0  0  0  0  0  0  0  0  0  0
    0.7500   -3.8971    0.0000 N   0  0  0  0  0  0  0  0  0  0  0  0
    1.5000   -2.5981    0.0000 C   0  0  0  0  0  0  0  0  0  0  0  0
    0.7500   -1.2990    0.0000 C   0  0  0  0  0  0  0  0  0  0  0  0
    1.5000    0.0000    0.0000 C   0  0  0  0  0  0  0  0  0  0  0  0
    0.7500    1.2990    0.0000 C   0  0  0  0  0  0  0  0  0  0  0  0
   -0.7500    1.2990    0.0000 C   0  0  0  0  0  0  0  0  0  0  0  0
   -1.5000    0.0000    0.0000 C   0  0  0  0  0  0  0  0  0  0  0  0
   -0.7500   -1.2990    0.0000 C   0  0  0  0  0  0  0  0  0  0  0  0
   -1.5000   -2.5981    0.0000 C   0  0  0  0  0  0  0  0  0  0  0  0
   -0.7500   -3.8971    0.0000 C   0  0  0  0  0  0  0  0  0  0  0  0
   -1.5000   -5.1962    0.0000 C   0  0  0  0  0  0  0  0  0  0  0  0
   -0.7500   -6.4952    0.0000 O   0  0  0  0  0  0  0  0  0  0  0  0
   -3.0000   -5.1962    0.0000 N   0  0  0  0  0  0  0  0  0  0  0  0
   -3.7500   -6.4952    0.0000 C   0  0  0  0  0  0  0  0  0  0  0  0
   -5.0490   -5.7452    0.0000 C   0  0  0  0  0  0  0  0  0  0  0  0
   -2.4510   -7.2452    0.0000 C   0  0  0  0  0  0  0  0  0  0  0  0
   -4.5000   -7.7942    0.0000 C   0  0  0  0  0  0  0  0  0  0  0  0
  1  2  1  0
  2  3  2  0
  3  4  1  0
  3  5  1  0
  5  6  2  0
  6  7  1  0
  7  8  2  0
  8  9  1  0
  9 10  2  0
  9 11  1  0
 11 12  1  0
 12 13  1  6
 13 14  1  0
 14 15  1  0
 15 16  2  0
 16 17  1  0
 17 18  2  0
 18 19  1  0
 19 20  2  0
 12 21  1  0
 21 22  1  1
 21 23  1  0
 23 24  1  0
 24 25  1  0
 26 25  1  6
 26 27  1  0
 27 28  1  0
 28 29  1  0
 29 30  1  0
 31 30  1  6
 31 32  1  0
 32 33  1  0
 33 34  1  6
 34 35  2  0
 34 36  1  0
 36 37  1  0
 37 38  1  0
 37 39  1  0
 37 40  1  0
  8  2  1  0
 20 15  1  0
 33 24  1  0
 31 26  1  0
M  END
$$$$
213505
     RDKit          2D

 45 47  0  0  0  0  0  0  0  0999 V2000
    5.2500  -11.6913    0.0000 C   0  0  0  0  0  0  0  0  0  0  0  0
    3.7500  -11.6913    0.0000 C   0  0  0  0  0  0  0  0  0  0  0  0
    3.0000  -12.9904    0.0000 C   0  0  0  0  0  0  0  0  0  0  0  0
    3.7500  -14.2894    0.0000 O   0  0  0  0  0  0  0  0  0  0  0  0
    1.5000  -12.9904    0.0000 C   0  0  0  0  0  0  0  0  0  0  0  0
    0.7500  -11.6913    0.0000 C   0  0  0  0  0  0  0  0  0  0  0  0
    1.5000  -10.3923    0.0000 C   0  0  0  0  0  0  0  0  0  0  0  0
    3.0000  -10.3923    0.0000 C   0  0  0  0  0  0  0  0  0  0  0  0
    3.7500   -9.0933    0.0000 C   0  0  0  0  0  0  0  0  0  0  0  0
    5.2500   -9.0933    0.0000 O   0  0  0  0  0  0  0  0  0  0  0  0
    3.0000   -7.7942    0.0000 N   0  0  0  0  0  0  0  0  0  0  0  0
    3.7500   -6.4952    0.0000 C   0  0  0  0  0  0  0  0  0  0  0  0
    5.2500   -6.4952    0.0000 C   0  0  0  0  0  0  0  0  0  0  0  0
    6.0000   -7.7942    0.0000 S   0  0  0  0  0  0  0  0  0  0  0  0
    7.5000   -7.7942    0.0000 C   0  0  0  0  0  0  0  0  0  0  0  0
    8.2500   -9.0933    0.0000 C   0  0  0  0  0  0  0  0  0  0  0  0
    9.7500   -9.0933    0.0000 C   0  0  0  0  0  0  0  0  0  0  0  0
   10.5000   -7.7942    0.0000 C   0  0  0  0  0  0  0  0  0  0  0  0
    9.7500   -6.4952    0.0000 C   0  0  0  0  0  0  0  0  0  0  0  0
    8.2500   -6.4952    0.0000 C   0  0  0  0  0  0  0  0  0  0  0  0
    3.0000   -5.1962    0.0000 C   0  0  0  0  0  0  0  0  0  0  0  0
    3.7500   -3.8971    0.0000 O   0  0  0  0  0  0  0  0  0  0  0  0
    1.5000   -5.1962    0.0000 C   0  0  0  0  0  0  0  0  0  0  0  0
    0.7500   -3.8971    0.0000 N   0  0  0  0  0  0  0  0  0  0  0  0
    1.5000   -2.5981    0.0000 C   0  0  0  0  0  0  0  0  0  0  0  0
    0.7500   -1.2990    0.0000 C   0  0  0  0  0  0  0  0  0  0  0  0
    1.5000    0.0000    0.0000 C   0  0  0  0  0  0  0  0  0  0  0  0
    0.7500    1.2990    0.0000 C   0  0  0  0  0  0  0  0  0  0  0  0
   -0.7500    1.2990    0.0000 C   0  0  0  0  0  0  0  0  0  0  0  0
   -1.5000    0.0000    0.0000 C   0  0  0  0  0  0  0  0  0  0  0  0
   -0.7500   -1.2990    0.0000 C   0  0  0  0  0  0  0  0  0  0  0  0
   -1.5000   -2.5981    0.0000 C   0  0  0  0  0  0  0  0  0  0  0  0
   -0.7500   -3.8971    0.0000 C   0  0  0  0  0  0  0  0  0  0  0  0
   -1.5000   -5.1962    0.0000 C   0  0  0  0  0  0  0  0  0  0  0  0
   -0.7500   -6.4952    0.0000 O   0  0  0  0  0  0  0  0  0  0  0  0
   -3.0000   -5.1962    0.0000 N   0  0  0  0  0  0  0  0  0  0  0  0
   -3.7500   -6.4952    0.0000 C   0  0  0  0  0  0  0  0  0  0  0  0
   -5.0490   -5.7452    0.0000 C   0  0  0  0  0  0  0  0  0  0  0  0
   -2.4510   -7.2452    0.0000 C   0  0  0  0  0  0  0  0  0  0  0  0
   -4.5000   -7.7942    0.0000 C   0  0  0  0  0  0  0  0  0  0  0  0
   11.5000    0.0000    0.0000 C   0  0  0  0  0  0  0  0  0  0  0  0
   12.7990    0.7500    0.0000 S   0  0  0  0  0  0  0  0  0  0  0  0
   13.5490   -0.5490    0.0000 O   0  0  0  0  0  0  0  0  0  0  0  0
   12.0490    2.0490    0.0000 O   0  0  0  0  0  0  0  0  0  0  0  0
   14.0981    1.5000    0.0000 O   0  0  0  0  0  0  0  0  0  0  0  0
  1  2  1  0
  2  3  2  0
  3  4  1  0
  3  5  1  0
  5  6  2  0
  6  7  1  0
  7  8  2  0
  8  9  1  0
  9 10  2  0
  9 11  1  0
 11 12  1  0
 12 13  1  6
 13 14  1  0
 14 15  1  0
 15 16  2  0
 16 17  1  0
 17 18  2  0
 18 19  1  0
 19 20  2  0
 12 21  1  0
 21 22  1  1
 21 23  1  0
 23 24  1  0
 24 25  1  0
 26 25  1  6
 26 27  1  0
 27 28  1  0
 28 29  1  0
 29 30  1  0
 31 30  1  6
 31 32  1  0
 32 33  1  0
 33 34  1  6
 34 35  2  0
 34 36  1  0
 36 37  1  0
 37 38  1  0
 37 39  1  0
 37 40  1  0
 41 42  1  0
 42 43  2  0
 42 44  2  0
 42 45  1  0
  8  2  1  0
 20 15  1  0
 33 24  1  0
 31 26  1  0
M  END
$$$$
5975
     RDKit          2D

 25 27  0  0  0  0  0  0  0  0999 V2000
    1.2990   -7.3573    0.0000 C   0  0  0  0  0  0  0  0  0  0  0  0
   -0.0000   -8.1073    0.0000 C   0  0  0  0  0  0  0  0  0  0  0  0
   -0.0000   -9.6073    0.0000 C   0  0  0  0  0  0  0  0  0  0  0  0
    1.2990  -10.3573    0.0000 O   0  0  0  0  0  0  0  0  0  0  0  0
    1.2990  -11.8573    0.0000 C   0  0  0  0  0  0  0  0  0  0  0  0
    2.5981  -12.6073    0.0000 C   0  0  0  0  0  0  0  0  0  0  0  0
    3.8971  -13.3573    0.0000 F   0  0  0  0  0  0  0  0  0  0  0  0
    1.8481  -13.9063    0.0000 F   0  0  0  0  0  0  0  0  0  0  0  0
    3.3481  -11.3083    0.0000 F   0  0  0  0  0  0  0  0  0  0  0  0
   -1.2990  -10.3573    0.0000 C   0  0  0  0  0  0  0  0  0  0  0  0
   -2.5981   -9.6073    0.0000 C   0  0  0  0  0  0  0  0  0  0  0  0
   -2.5981   -8.1073    0.0000 N   0  0  0  0  0  0  0  0  0  0  0  0
   -1.2990   -7.3573    0.0000 C   0  0  0  0  0  0  0  0  0  0  0  0
   -1.2990   -5.8573    0.0000 C   0  0  0  0  0  0  0  0  0  0  0  0
   -0.0000   -5.1073    0.0000 S   0  0  0  0  0  3  0  0  0  0  0  0
    1.2990   -5.8573    0.0000 O   0  0  0  0  0  1  0  0  0  0  0  0
   -0.0000   -3.6073    0.0000 C   0  0  0  0  0  0  0  0  0  0  0  0
    1.2135   -2.7256    0.0000 N   0  0  0  0  0  0  0  0  0  0  0  0
    0.7500   -1.2990    0.0000 C   0  0  0  0  0  0  0  0  0  0  0  0
    1.5000    0.0000    0.0000 C   0  0  0  0  0  0  0  0  0  0  0  0
    0.7500    1.2990    0.0000 C   0  0  0  0  0  0  0  0  0  0  0  0
   -0.7500    1.2990    0.0000 C   0  0  0  0  0  0  0  0  0  0  0  0
   -1.5000    0.0000    0.0000 C   0  0  0  0  0  0  0  0  0  0  0  0
   -0.7500   -1.2990    0.0000 C   0  0  0  0  0  0  0  0  0  0  0  0
   -1.2135   -2.7256    0.0000 N   0  0  0  0  0  0  0  0  0  0  0  0
  1  2  1  0
  2  3  2  0
  3  4  1  0
  4  5  1  0
  5  6  1  0
  6  7  1  0
  6  8  1  0
  6  9  1  0
  3 10  1  0
 10 11  2  0
 11 12  1  0
 12 13  2  0
 13 14  1  0
 14 15  1  0
 15 16  1  0
 15 17  1  0
 17 18  2  0
 18 19  1  0
 19 20  2  0
 20 21  1  0
 21 22  2  0
 22 23  1  0
 23 24  2  0
 24 25  1  0
 13  2  1  0
 25 17  1  0
 24 19  1  0
M  CHG  2  15   1  16  -1
M  END
$$$$
675812
     RDKit          2D

 25 27  0  0  0  0  0  0  0  0999 V2000
    1.2990   -7.3573    0.0000 C   0  0  0  0  0  0  0  0  0  0  0  0
   -0.0000   -8.1073    0.0000 C   0  0  0  0  0  0  0  0  0  0  0  0
   -0.0000   -9.6073    0.0000 C   0  0  0  0  0  0  0  0  0  0  0  0
    1.2990  -10.3573    0.0000 O   0  0  0  0  0  0  0  0  0  0  0  0
    1.2990  -11.8573    0.0000 C   0  0  0  0  0  0  0  0  0  0  0  0
    2.5981  -12.6073    0.0000 C   0  0  0  0  0  0  0  0  0  0  0  0
    3.8971  -13.3573    0.0000 F   0  0  0  0  0  0  0  0  0  0  0  0
    1.8481  -13.9063    0.0000 F   0  0  0  0  0  0  0  0  0  0  0  0
    3.3481  -11.3083    0.0000 F   0  0  0  0  0  0  0  0  0  0  0  0
   -1.2990  -10.3573    0.0000 C   0  0  0  0  0  0  0  0  0  0  0  0
   -2.5981   -9.6073    0.0000 C   0  0  0  0  0  0  0  0  0  0  0  0
   -2.5981   -8.1073    0.0000 N   0  0  0  0  0  0  0  0  0  0  0  0
   -1.2990   -7.3573    0.0000 C   0  0  0  0  0  0  0  0  0  0  0  0
   -1.2990   -5.8573    0.0000 C   0  0  0  0  0  0  0  0  0  0  0  0
   -0.0000   -5.1073    0.0000 S   0  0  0  0  0  3  0  0  0  0  0  0
    1.2990   -5.8573    0.0000 O   0  0  0  0  0  1  0  0  0  0  0  0
   -0.0000   -3.6073    0.0000 C   0  0  0  0  0  0  0  0  0  0  0  0
    1.2135   -2.7256    0.0000 N   0  0  0  0  0  0  0  0  0  0  0  0
    0.7500   -1.2990    0.0000 C   0  0  0  0  0  0  0  0  0  0  0  0
    1.5000    0.0000    0.0000 C   0  0  0  0  0  0  0  0  0  0  0  0
    0.7500    1.2990    0.0000 C   0  0  0  0  0  0  0  0  0  0  0  0
   -0.7500    1.2990    0.0000 C   0  0  0  0  0  0  0  0  0  0  0  0
   -1.5000    0.0000    0.0000 C   0  0  0  0  0  0  0  0  0  0  0  0
   -0.7500   -1.2990    0.0000 C   0  0  0  0  0  0  0  0  0  0  0  0
   -1.2135   -2.7256    0.0000 N   0  0  0  0  0  0  0  0  0  0  0  0
  1  2  1  0
  2  3  2  0
  3  4  1  0
  4  5  1  0
  5  6  1  0
  6  7  1  0
  6  8  1  0
  6  9  1  0
  3 10  1  0
 10 11  2  0
 11 12  1  0
 12 13  2  0
 13 14  1  0
 14 15  1  0
 15 16  1  0
 15 17  1  0
 17 18  2  0
 18 19  1  0
 19 20  2  0
 20 21  1  0
 21 22  2  0
 22 23  1  0
 23 24  2  0
 24 25  1  0
 13  2  1  0
 25 17  1  0
 24 19  1  0
M  CHG  2  15   1  16  -1
M  END
$$$$
574499
     RDKit          2D

 14 15  0  0  0  0  0  0  0  0999 V2000
    3.0000    0.0000    0.0000 C   0  0  0  0  0  0  0  0  0  0  0  0
    1.5000    0.0000    0.0000 C   0  0  0  0  0  0  0  0  0  0  0  0
    0.7500   -1.2990    0.0000 C   0  0  0  0  0  0  0  0  0  0  0  0
   -0.7500   -1.2990    0.0000 O   0  0  0  0  0  0  0  0  0  0  0  0
   -1.5000    0.0000    0.0000 C   0  0  0  0  0  0  0  0  0  0  0  0
   -0.7500    1.2990    0.0000 C   0  0  0  0  0  0  0  0  0  0  0  0
    0.7500    1.2990    0.0000 N   0  0  0  0  0  0  0  0  0  0  0  0
    1.5000    2.5981    0.0000 C   0  0  0  0  0  0  0  0  0  0  0  0
    1.5000   -2.5981    0.0000 C   0  0  0  0  0  0  0  0  0  0  0  0
    0.7500   -3.8971    0.0000 C   0  0  0  0  0  0  0  0  0  0  0  0
    1.5000   -5.1962    0.0000 C   0  0  0  0  0  0  0  0  0  0  0  0
    3.0000   -5.1962    0.0000 C   0  0  0  0  0  0  0  0  0  0  0  0
    3.7500   -3.8971    0.0000 C   0  0  0  0  0  0  0  0  0  0  0  0
    3.0000   -2.5981    0.0000 C   0  0  0  0  0  0  0  0  0  0  0  0
  1  2  1  0
  2  3  1  0
  3  4  1  0
  4  5  1  0
  5  6  1  0
  6  7  1  0
  7  8  1  0
  3  9  1  0
  9 10  2  0
 10 11  1  0
 11 12  2  0
 12 13  1  0
 13 14  2  0
  7  2  1  0
 14  9  1  0
M  END
$$$$
1239094
     RDKit          2D

 24 24  0  0  0  0  0  0  0  0999 V2000
    3.0000    0.0000    0.0000 C   0  0  0  0  0  0  0  0  0  0  0  0
    1.5000    0.0000    0.0000 C   0  0  0  0  0  0  0  0  0  0  0  0
    0.7500   -1.2990    0.0000 C   0  0  0  0  0  0  0  0  0  0  0  0
   -0.7500   -1.2990    0.0000 O   0  0  0  0  0  0  0  0  0  0  0  0
   -1.5000    0.0000    0.0000 C   0  0  0  0  0  0  0  0  0  0  0  0
   -0.7500    1.2990    0.0000 C   0  0  0  0  0  0  0  0  0  0  0  0
    0.7500    1.2990    0.0000 N   0  0  0  0  0  0  0  0  0  0  0  0
    1.5000    2.5981    0.0000 C   0  0  0  0  0  0  0  0  0  0  0  0
    1.5000   -2.5981    0.0000 C   0  0  0  0  0  0  0  0  0  0  0  0
    0.7500   -3.8971    0.0000 C   0  0  0  0  0  0  0  0  0  0  0  0
    1.5000   -5.1962    0.0000 C   0  0  0  0  0  0  0  0  0  0  0  0
    3.0000   -5.1962    0.0000 C   0  0  0  0  0  0  0  0  0  0  0  0
    3.7500   -3.8971    0.0000 C   0  0  0  0  0  0  0  0  0  0  0  0
    3.0000   -2.5981    0.0000 C   0  0  0  0  0  0  0  0  0  0  0  0
    7.3481   -1.5000    0.0000 O   0  0  0  0  0  0  0  0  0  0  0  0
    7.3481    0.0000    0.0000 C   0  0  0  0  0  0  0  0  0  0  0  0
    8.6471    0.7500    0.0000 C   0  0  0  0  0  0  0  0  0  0  0  0
    8.6471    2.2500    0.0000 O   0  0  0  0  0  0  0  0  0  0  0  0
    9.9462   -0.0000    0.0000 C   0  0  0  0  0  0  0  0  0  0  0  0
    9.9462   -1.5000    0.0000 O   0  0  0  0  0  0  0  0  0  0  0  0
   11.2452    0.7500    0.0000 O   0  0  0  0  0  0  0  0  0  0  0  0
    6.0490    0.7500    0.0000 C   0  0  0  0  0  0  0  0  0  0  0  0
    6.0490    2.2500    0.0000 O   0  0  0  0  0  0  0  0  0  0  0  0
    4.7500    0.0000    0.0000 O   0  0  0  0  0  0  0  0  0  0  0  0
  1  2  1  0
  2  3  1  0
  3  4  1  0
  4  5  1  0
  5  6  1  0
  6  7  1  0
  7  8  1  0
  3  9  1  0
  9 10  2  0
 10 11  1  0
 11 12  2  0
 12 13  1  0
 13 14  2  0
 15 16  1  0
 16 17  1  0
 17 18  1  0
 17 19  1  0
 19 20  2  0
 19 21  1  0
 16 22  1  0
 22 23  2  0
 22 24  1  0
  7  2  1  0
 14  9  1  0
M  END
$$$$
611679
     RDKit          2D

 16 17  0  0  0  0  0  0  0  0999 V2000
    3.0000    0.0000    0.0000 C   0  0  0  0  0  0  0  0  0  0  0  0
    1.5000    0.0000    0.0000 C   0  0  0  0  0  0  0  0  0  0  0  0
    0.7500   -1.2990    0.0000 C   0  0  0  0  0  0  0  0  0  0  0  0
   -0.7500   -1.2990    0.0000 C   0  0  0  0  0  0  0  0  0  0  0  0
   -1.5000   -2.5981    0.0000 C   0  0  0  0  0  0  0  0  0  0  0  0
   -1.5000    0.0000    0.0000 C   0  0  0  0  0  0  0  0  0  0  0  0
   -0.7500    1.2990    0.0000 C   0  0  0  0  0  0  0  0  0  0  0  0
   -1.5000    2.5981    0.0000 O   0  0  0  0  0  0  0  0  0  0  0  0
   -0.7500    3.8971    0.0000 C   0  0  0  0  0  0  0  0  0  0  0  0
   -1.5000    5.1962    0.0000 C   0  0  0  0  0  0  0  0  0  0  0  0
   -2.9918    5.3529    0.0000 C   0  0  0  0  0  0  0  0  0  0  0  0
   -3.3037    6.8202    0.0000 N   0  0  0  0  0  0  0  0  0  0  0  0
   -2.0046    7.5702    0.0000 C   0  0  0  0  0  0  0  0  0  0  0  0
   -1.8478    9.0619    0.0000 O   0  0  0  0  0  0  0  0  0  0  0  0
   -0.8899    6.5665    0.0000 O   0  0  0  0  0  0  0  0  0  0  0  0
    0.7500    1.2990    0.0000 C   0  0  0  0  0  0  0  0  0  0  0  0
  1  2  1  0
  2  3  2  0
  3  4  1  0
  4  5  1  0
  4  6  2  0
  6  7  1  0
  7  8  1  0
  8  9  1  0
  9 10  1  0
 10 11  1  0
 11 12  1  0
 12 13  1  0
 13 14  2  0
 13 15  1  0
  7 16  2  0
 16  2  1  0
 15 10  1  0
M  END
$$$$
2265
     RDKit          2D

 19 20  0  0  0  0  0  0  0  0999 V2000
    3.0000    0.0000    0.0000 C   0  0  0  0  0  0  0  0  0  0  0  0
    1.5000    0.0000    0.0000 C   0  0  0  0  0  0  0  0  0  0  0  0
    0.7500   -1.2990    0.0000 C   0  0  0  0  0  0  0  0  0  0  0  0
   -0.7500   -1.2990    0.0000 C   0  0  0  0  0  0  0  0  0  0  0  0
   -1.5000   -2.5981    0.0000 C   0  0  0  0  0  0  0  0  0  0  0  0
   -1.5000    0.0000    0.0000 N   0  0  0  0  0  0  0  0  0  0  0  0
   -0.7500    1.2990    0.0000 C   0  0  0  0  0  0  0  0  0  0  0  0
   -1.5000    2.5981    0.0000 N   0  0  0  0  0  0  0  0  0  0  0  0
   -0.7500    3.8971    0.0000 S   0  0  0  0  0  0  0  0  0  0  0  0
    0.5490    3.1471    0.0000 O   0  0  0  0  0  0  0  0  0  0  0  0
   -2.0490    4.6471    0.0000 O   0  0  0  0  0  0  0  0  0  0  0  0
    0.0000    5.1962    0.0000 C   0  0  0  0  0  0  0  0  0  0  0  0
    1.5000    5.1962    0.0000 C   0  0  0  0  0  0  0  0  0  0  0  0
    2.2500    6.4952    0.0000 C   0  0  0  0  0  0  0  0  0  0  0  0
    1.5000    7.7942    0.0000 C   0  0  0  0  0  0  0  0  0  0  0  0
    2.2500    9.0933    0.0000 N   0  0  0  0  0  0  0  0  0  0  0  0
    0.0000    7.7942    0.0000 C   0  0  0  0  0  0  0  0  0  0  0  0
   -0.7500    6.4952    0.0000 C   0  0  0  0  0  0  0  0  0  0  0  0
    0.7500    1.2990    0.0000 N   0  0  0  0  0  0  0  0  0  0  0  0
  1  2  1  0
  2  3  2  0
  3  4  1  0
  4  5  1  0
  4  6  2  0
  6  7  1  0
  7  8  1  0
  8  9  1  0
  9 10  2  0
  9 11  2  0
  9 12  1  0
 12 13  2  0
 13 14  1  0
 14 15  2  0
 15 16  1  0
 15 17  1  0
 17 18  2  0
  7 19  2  0
 19  2  1  0
 18 12  1  0
M  END
$$$$
113138
     RDKit          2D

 28 30  0  0  0  0  0  0  0  0999 V2000
    3.0000    0.0000    0.0000 C   0  0  0  0  0  0  0  0  0  0  0  0
    1.5000    0.0000    0.0000 C   0  0  0  0  0  0  0  0  0  0  0  0
    0.7500   -1.2990    0.0000 C   0  0  0  0  0  0  0  0  0  0  0  0
   -0.7500   -1.2990    0.0000 C   0  0  0  0  0  0  0  0  0  0  0  0
   -1.5000    0.0000    0.0000 C   0  0  0  0  0  0  0  0  0  0  0  0
   -0.7500    1.2990    0.0000 C   0  0  0  0  0  0  0  0  0  0  0  0
   -1.5000    2.5981    0.0000 C   0  0  0  0  0  0  0  0  0  0  0  0
    0.7500    1.2990    0.0000 C   0  0  0  0  0  0  0  0  0  0  0  0
    1.5000    2.5981    0.0000 O   0  0  0  0  0  0  0  0  0  0  0  0
    3.0000    2.5981    0.0000 C   0  0  0  0  0  0  0  0  0  0  0  0
    3.7500    1.2990    0.0000 N   0  0  0  0  0  0  0  0  0  0  0  0
    5.2500    1.2990    0.0000 C   0  0  0  0  0  0  0  0  0  0  0  0
    6.0000   -0.0000    0.0000 N   0  0  0  0  0  0  0  0  0  0  0  0
    7.5000   -0.0000    0.0000 C   0  0  0  0  0  0  0  0  0  0  0  0
    8.2500   -1.2990    0.0000 C   0  0  0  0  0  0  0  0  0  0  0  0
    9.7500   -1.2990    0.0000 C   0  0  0  0  0  0  0  0  0  0  0  0
   10.5000   -0.0000    0.0000 C   0  0  0  0  0  0  0  0  0  0  0  0
    9.7500    1.2990    0.0000 C   0  0  0  0  0  0  0  0  0  0  0  0
    8.2500    1.2990    0.0000 C   0  0  0  0  0  0  0  0  0  0  0  0
   12.0000   -0.0000    0.0000 C   0  0  0  0  0  0  0  0  0  0  0  0
   13.5000   -0.0000    0.0000 N   0  0  0  0  0  0  0  0  0  0  0  0
    6.0000    2.5981    0.0000 N   0  0  0  0  0  0  0  0  0  0  0  0
    5.2500    3.8971    0.0000 C   0  0  0  0  0  0  0  0  0  0  0  0
    6.0000    5.1962    0.0000 N   0  0  0  0  0  0  0  0  0  0  0  0
    3.7500    3.8971    0.0000 C   0  0  0  0  0  0  0  0  0  0  0  0
    3.0000    5.1962    0.0000 Br  0  0  0  0  0  0  0  0  0  0  0  0
   -1.5000   -2.5981    0.0000 C   0  0  0  0  0  0  0  0  0  0  0  0
   -2.2500   -3.8971    0.0000 N   0  0  0  0  0  0  0  0  0  0  0  0
  1  2  1  0
  2  3  2  0
  3  4  1  0
  4  5  2  0
  5  6  1  0
  6  7  1  0
  6  8  2  0
  8  9  1  0
  9 10  1  0
 10 11  2  0
 11 12  1  0
 12 13  1  0
 13 14  1  0
 14 15  2  0
 15 16  1  0
 16 17  2  0
 17 18  1  0
 18 19  2  0
 17 20  1  0
 20 21  3  0
 12 22  2  0
 22 23  1  0
 23 24  1  0
 23 25  2  0
 25 26  1  0
  4 27  1  0
 27 28  3  0
  8  2  1  0
 25 10  1  0
 19 14  1  0
M  END
$$$$
296388
     RDKit          2D

 28 30  0  0  0  0  0  0  0  0999 V2000
    3.0000    0.0000    0.0000 C   0  0  0  0  0  0  0  0  0  0  0  0
    1.5000    0.0000    0.0000 C   0  0  0  0  0  0  0  0  0  0  0  0
    0.7500   -1.2990    0.0000 C   0  0  0  0  0  0  0  0  0  0  0  0
   -0.7500   -1.2990    0.0000 C   0  0  0  0  0  0  0  0  0  0  0  0
   -1.5000   -2.5981    0.0000 C   0  0  0  0  0  0  0  0  0  0  0  0
   -3.0000   -2.5981    0.0000 C   0  0  0  0  0  0  0  0  0  0  0  0
   -3.7500   -3.8971    0.0000 C   0  0  0  0  0  0  0  0  0  0  0  0
   -4.5000   -5.1962    0.0000 N   0  0  0  0  0  0  0  0  0  0  0  0
   -1.5000    0.0000    0.0000 C   0  0  0  0  0  0  0  0  0  0  0  0
   -0.7500    1.2990    0.0000 C   0  0  0  0  0  0  0  0  0  0  0  0
   -1.5000    2.5981    0.0000 C   0  0  0  0  0  0  0  0  0  0  0  0
    0.7500    1.2990    0.0000 C   0  0  0  0  0  0  0  0  0  0  0  0
    1.5000    2.5981    0.0000 N   0  0  0  0  0  0  0  0  0  0  0  0
    3.0000    2.5981    0.0000 C   0  0  0  0  0  0  0  0  0  0  0  0
    3.7500    1.2990    0.0000 C   0  0  0  0  0  0  0  0  0  0  0  0
    5.2500    1.2990    0.0000 C   0  0  0  0  0  0  0  0  0  0  0  0
    6.0000    2.5981    0.0000 N   0  0  0  0  0  0  0  0  0  0  0  0
    5.2500    3.8971    0.0000 C   0  0  0  0  0  0  0  0  0  0  0  0
    6.0000    5.1962    0.0000 N   0  0  0  0  0  0  0  0  0  0  0  0
    7.5000    5.1962    0.0000 C   0  0  0  0  0  0  0  0  0  0  0  0
    8.2500    3.8971    0.0000 C   0  0  0  0  0  0  0  0  0  0  0  0
    9.7500    3.8971    0.0000 C   0  0  0  0  0  0  0  0  0  0  0  0
   10.5000    5.1962    0.0000 C   0  0  0  0  0  0  0  0  0  0  0  0
    9.7500    6.4952    0.0000 C   0  0  0  0  0  0  0  0  0  0  0  0
    8.2500    6.4952    0.0000 C   0  0  0  0  0  0  0  0  0  0  0  0
   12.0000    5.1962    0.0000 C   0  0  0  0  0  0  0  0  0  0  0  0
   13.5000    5.1962    0.0000 N   0  0  0  0  0  0  0  0  0  0  0  0
    3.7500    3.8971    0.0000 N   0  0  0  0  0  0  0  0  0  0  0  0
  1  2  1  0
  2  3  2  0
  3  4  1  0
  4  5  1  0
  5  6  2  0
  6  7  1  0
  7  8  3  0
  4  9  2  0
  9 10  1  0
 10 11  1  0
 10 12  2  0
 12 13  1  0
 13 14  1  0
 14 15  2  0
 15 16  1  0
 16 17  2  0
 17 18  1  0
 18 19  1  0
 19 20  1  0
 20 21  2  0
 21 22  1  0
 22 23  2  0
 23 24  1  0
 24 25  2  0
 23 26  1  0
 26 27  3  0
 18 28  2  0
 12  2  1  0
 28 14  1  0
 25 20  1  0
M  END
$$$$
119498
     RDKit          2D

 26 28  0  0  0  0  0  0  0  0999 V2000
    3.0000    0.0000    0.0000 C   0  0  0  0  0  0  0  0  0  0  0  0
    1.5000    0.0000    0.0000 C   0  0  0  0  0  0  0  0  0  0  0  0
    0.7500   -1.2990    0.0000 C   0  0  0  0  0  0  0  0  0  0  0  0
   -0.7500   -1.2990    0.0000 C   0  0  0  0  0  0  0  0  0  0  0  0
   -1.5000    0.0000    0.0000 C   0  0  0  0  0  0  0  0  0  0  0  0
   -0.7500    1.2990    0.0000 C   0  0  0  0  0  0  0  0  0  0  0  0
    0.7500    1.2990    0.0000 C   0  0  0  0  0  0  0  0  0  0  0  0
    1.5000    2.5981    0.0000 C   0  0  0  0  0  0  0  0  0  0  0  0
    0.7500    3.8971    0.0000 C   0  0  0  0  0  0  0  0  0  0  0  0
    3.0000    2.5981    0.0000 C   0  0  0  0  0  0  0  0  0  0  0  0
    3.7500    1.2990    0.0000 C   0  0  0  0  0  0  0  0  0  0  0  0
    5.2500    1.2990    0.0000 C   0  0  0  0  0  0  0  0  0  0  0  0
    6.0000    2.5981    0.0000 C   0  0  0  0  0  0  0  0  0  0  0  0
    5.2500    3.8971    0.0000 C   0  0  0  0  0  0  0  0  0  0  0  0
    3.7500    3.8971    0.0000 C   0  0  0  0  0  0  0  0  0  0  0  0
    7.5000    2.5981    0.0000 C   0  0  0  0  0  0  0  0  0  0  0  0
    8.2500    3.8971    0.0000 O   0  0  0  0  0  0  0  0  0  0  0  0
    8.2500    1.2990    0.0000 O   0  0  0  0  0  0  0  0  0  0  0  0
   -3.0000    0.0000    0.0000 C   0  0  0  0  0  0  0  0  0  0  0  0
   -4.4095    0.5130    0.0000 C   0  0  0  0  0  0  0  0  0  0  0  0
   -2.7395    1.4772    0.0000 C   0  0  0  0  0  0  0  0  0  0  0  0
   -3.7500   -1.2990    0.0000 C   0  0  0  0  0  0  0  0  0  0  0  0
   -3.0000   -2.5981    0.0000 C   0  0  0  0  0  0  0  0  0  0  0  0
   -1.5000   -2.5981    0.0000 C   0  0  0  0  0  0  0  0  0  0  0  0
   -0.0905   -3.1111    0.0000 C   0  0  0  0  0  0  0  0  0  0  0  0
   -1.7605   -4.0753    0.0000 C   0  0  0  0  0  0  0  0  0  0  0  0
  1  2  1  0
  2  3  2  0
  3  4  1  0
  4  5  2  0
  5  6  1  0
  6  7  2  0
  7  8  1  0
  8  9  2  0
  8 10  1  0
 10 11  2  0
 11 12  1  0
 12 13  2  0
 13 14  1  0
 14 15  2  0
 13 16  1  0
 16 17  2  0
 16 18  1  0
  5 19  1  0
 19 20  1  0
 19 21  1  0
 19 22  1  0
 22 23  1  0
 23 24  1  0
 24 25  1  0
 24 26  1  0
  7  2  1  0
 24  4  1  0
 15 10  1  0
M  END
$$$$
619
     RDKit          2D

 24 26  0  0  0  0  0  0  0  0999 V2000
   -0.0000   -5.1073    0.0000 C   0  0  0  0  0  0  0  0  0  0  0  0
   -0.0000   -3.6073    0.0000 C   0  0  0  0  0  0  0  0  0  0  0  0
    1.2135   -2.7256    0.0000 C   0  0  0  0  0  0  0  0  0  0  0  0
    0.7500   -1.2990    0.0000 C   0  0  0  0  0  0  0  0  0  0  0  0
    1.5000    0.0000    0.0000 C   0  0  0  0  0  0  0  0  0  0  0  0
    0.7500    1.2990    0.0000 C   0  0  0  0  0  0  0  0  0  0  0  0
   -0.7500    1.2990    0.0000 C   0  0  0  0  0  0  0  0  0  0  0  0
   -1.5000    0.0000    0.0000 C   0  0  0  0  0  0  0  0  0  0  0  0
   -0.7500   -1.2990    0.0000 C   0  0  0  0  0  0  0  0  0  0  0  0
   -1.2135   -2.7256    0.0000 N   0  0  0  0  0  0  0  0  0  0  0  0
   -2.6401   -3.1891    0.0000 N   0  0  0  0  0  0  0  0  0  0  0  0
   -3.7548   -2.1855    0.0000 C   0  0  0  0  0  0  0  0  0  0  0  0
   -3.4430   -0.7182    0.0000 O   0  0  0  0  0  0  0  0  0  0  0  0
   -5.1814   -2.6490    0.0000 C   0  0  0  0  0  0  0  0  0  0  0  0
   -6.2961   -1.6453    0.0000 C   0  0  0  0  0  0  0  0  0  0  0  0
   -7.7227   -2.1088    0.0000 C   0  0  0  0  0  0  0  0  0  0  0  0
   -8.0346   -3.5760    0.0000 C   0  0  0  0  0  0  0  0  0  0  0  0
   -9.4612   -4.0396    0.0000 Cl  0  0  0  0  0  0  0  0  0  0  0  0
   -6.9199   -4.5797    0.0000 C   0  0  0  0  0  0  0  0  0  0  0  0
   -5.4933   -4.1162    0.0000 C   0  0  0  0  0  0  0  0  0  0  0  0
   -7.2317   -6.0469    0.0000 S   0  0  0  0  0  0  0  0  0  0  0  0
   -5.7645   -6.3588    0.0000 O   0  0  0  0  0  0  0  0  0  0  0  0
   -8.6990   -5.7351    0.0000 O   0  0  0  0  0  0  0  0  0  0  0  0
   -7.5436   -7.5142    0.0000 N   0  0  0  0  0  0  0  0  0  0  0  0
  1  2  1  0
  2  3  1  0
  3  4  1  0
  4  5  2  0
  5  6  1  0
  6  7  2  0
  7  8  1  0
  8  9  2  0
  9 10  1  0
 10 11  1  0
 11 12  1  0
 12 13  2  0
 12 14  1  0
 14 15  2  0
 15 16  1  0
 16 17  2  0
 17 18  1  0
 17 19  1  0
 19 20  2  0
 19 21  1  0
 21 22  2  0
 21 23  2  0
 21 24  1  0
 10  2  1  0
  9  4  1  0
 20 14  1  0
M  END
$$$$
2994
     RDKit          2D

 18 18  0  0  0  0  0  0  0  0999 V2000
    3.0000    0.0000    0.0000 C   0  0  0  0  0  0  0  0  0  0  0  0
    1.5000    0.0000    0.0000 C   0  0  0  0  0  0  0  0  0  0  0  0
    0.7500   -1.2990    0.0000 C   0  0  0  0  0  0  0  0  0  0  0  0
   -0.7500   -1.2990    0.0000 C   0  0  0  0  0  0  0  0  0  0  0  0
   -1.5000    0.0000    0.0000 C   0  0  0  0  0  0  0  0  0  0  0  0
   -3.0000    0.0000    0.0000 C   0  0  0  0  0  0  0  0  0  0  0  0
   -0.7500    1.2990    0.0000 C   0  0  0  0  0  0  0  0  0  0  0  0
   -1.5000    2.5981    0.0000 O   0  0  0  0  0  0  0  0  0  0  0  0
   -0.7500    3.8971    0.0000 C   0  0  0  0  0  0  0  0  0  0  0  0
   -1.5000    5.1962    0.0000 C   0  0  0  0  0  0  0  0  0  0  0  0
   -0.7500    6.4952    0.0000 C   0  0  0  0  0  0  0  0  0  0  0  0
   -1.5000    7.7942    0.0000 C   0  0  0  0  0  0  0  0  0  0  0  0
   -2.7990    7.0442    0.0000 C   0  0  0  0  0  0  0  0  0  0  0  0
   -0.2010    8.5442    0.0000 C   0  0  0  0  0  0  0  0  0  0  0  0
   -2.2500    9.0933    0.0000 C   0  0  0  0  0  0  0  0  0  0  0  0
   -1.5000   10.3923    0.0000 O   0  0  0  0  0  0  0  0  0  0  0  0
   -3.7500    9.0933    0.0000 O   0  0  0  0  0  0  0  0  0  0  0  0
    0.7500    1.2990    0.0000 C   0  0  0  0  0  0  0  0  0  0  0  0
  1  2  1  0
  2  3  2  0
  3  4  1  0
  4  5  2  0
  5  6  1  0
  5  7  1  0
  7  8  1  0
  8  9  1  0
  9 10  1  0
 10 11  1  0
 11 12  1  0
 12 13  1  0
 12 14  1  0
 12 15  1  0
 15 16  2  0
 15 17  1  0
  7 18  2  0
 18  2  1  0
M  END
$$$$
267825
     RDKit          2D

 20 21  0  0  0  0  0  0  0  0999 V2000
    3.0000    0.0000    0.0000 C   0  0  0  0  0  0  0  0  0  0  0  0
    1.5000    0.0000    0.0000 C   0  0  0  0  0  0  0  0  0  0  0  0
    0.7500   -1.2990    0.0000 C   0  0  0  0  0  0  0  0  0  0  0  0
   -0.7500   -1.2990    0.0000 C   0  0  0  0  0  0  0  0  0  0  0  0
   -1.5000    0.0000    0.0000 C   0  0  0  0  0  0  0  0  0  0  0  0
   -0.7500    1.2990    0.0000 C   0  0  0  0  0  0  0  0  0  0  0  0
    0.7500    1.2990    0.0000 C   0  0  0  0  0  0  0  0  0  0  0  0
   -3.0000    0.0000    0.0000 C   0  0  0  0  0  0  0  0  0  0  0  0
   -3.7500   -1.2990    0.0000 O   0  0  0  0  0  0  0  0  0  0  0  0
   -3.7500    1.2990    0.0000 C   0  0  0  0  0  0  0  0  0  0  0  0
   -3.0000    2.5981    0.0000 C   0  0  0  0  0  0  0  0  0  0  0  0
   -3.7500    3.8971    0.0000 C   0  0  0  0  0  0  0  0  0  0  0  0
   -3.0000    5.1962    0.0000 O   0  0  0  0  0  0  0  0  0  0  0  0
   -5.2500    3.8971    0.0000 C   0  0  0  0  0  0  0  0  0  0  0  0
   -6.0000    5.1962    0.0000 O   0  0  0  0  0  0  0  0  0  0  0  0
   -6.0000    2.5981    0.0000 C   0  0  0  0  0  0  0  0  0  0  0  0
   -5.2500    1.2990    0.0000 C   0  0  0  0  0  0  0  0  0  0  0  0
   -7.5000    2.5981    0.0000 N   0  0  0  0  0  4  0  0  0  0  0  0
   -8.2500    3.8971    0.0000 O   0  0  0  0  0  0  0  0  0  0  0  0
   -8.2500    1.2990    0.0000 O   0  0  0  0  0  1  0  0  0  0  0  0
  1  2  1  0
  2  3  2  0
  3  4  1  0
  4  5  2  0
  5  6  1  0
  6  7  2  0
  5  8  1  0
  8  9  2  0
  8 10  1  0
 10 11  2  0
 11 12  1  0
 12 13  1  0
 12 14  2  0
 14 15  1  0
 14 16  1  0
 16 17  2  0
 16 18  1  0
 18 19  2  0
 18 20  1  0
  7  2  1  0
 17 10  1  0
M  CHG  2  18   1  20  -1
M  END
$$$$
118617
     RDKit          2D

 19 20  0  0  0  0  0  0  0  0999 V2000
    3.0000    0.0000    0.0000 C   0  0  0  0  0  0  0  0  0  0  0  0
    1.5000    0.0000    0.0000 C   0  0  0  0  0  0  0  0  0  0  0  0
    0.7500   -1.2990    0.0000 C   0  0  0  0  0  0  0  0  0  0  0  0
   -0.7500   -1.2990    0.0000 C   0  0  0  0  0  0  0  0  0  0  0  0
   -1.5000    0.0000    0.0000 C   0  0  0  0  0  0  0  0  0  0  0  0
   -0.7500    1.2990    0.0000 C   0  0  0  0  0  0  0  0  0  0  0  0
    0.7500    1.2990    0.0000 C   0  0  0  0  0  0  0  0  0  0  0  0
   -3.0000    0.0000    0.0000 C   0  0  0  0  0  0  0  0  0  0  0  0
   -3.7500   -1.2990    0.0000 O   0  0  0  0  0  0  0  0  0  0  0  0
   -3.7500    1.2990    0.0000 C   0  0  0  0  0  0  0  0  0  0  0  0
   -5.2418    1.4558    0.0000 C   0  0  0  0  0  0  0  0  0  0  0  0
   -5.5537    2.9231    0.0000 C   0  0  0  0  0  0  0  0  0  0  0  0
   -4.2546    3.6731    0.0000 C   0  0  0  0  0  0  0  0  0  0  0  0
   -4.0978    5.1648    0.0000 C   0  0  0  0  0  0  0  0  0  0  0  0
   -2.7275    5.7749    0.0000 C   0  0  0  0  0  0  0  0  0  0  0  0
   -1.5140    4.8933    0.0000 O   0  0  0  0  0  0  0  0  0  0  0  0
   -2.5707    7.2667    0.0000 O   0  0  0  0  0  0  0  0  0  0  0  0
   -3.1399    2.6694    0.0000 N   0  0  0  0  0  0  0  0  0  0  0  0
   -1.6727    2.9812    0.0000 C   0  0  0  0  0  0  0  0  0  0  0  0
  1  2  1  0
  2  3  2  0
  3  4  1  0
  4  5  2  0
  5  6  1  0
  6  7  2  0
  5  8  1  0
  8  9  2  0
  8 10  1  0
 10 11  2  0
 11 12  1  0
 12 13  2  0
 13 14  1  0
 14 15  1  0
 15 16  2  0
 15 17  1  0
 13 18  1  0
 18 19  1  0
  7  2  1  0
 18 10  1  0
M  END
$$$$
18694
     RDKit          2D

 26 28  0  0  0  0  0  0  0  0999 V2000
    3.0000    0.0000    0.0000 C   0  0  0  0  0  0  0  0  0  0  0  0
    1.5000    0.0000    0.0000 C   0  0  0  0  0  0  0  0  0  0  0  0
    0.7500   -1.2990    0.0000 C   0  0  0  0  0  0  0  0  0  0  0  0
   -0.7500   -1.2990    0.0000 C   0  0  0  0  0  0  0  0  0  0  0  0
   -1.5000    0.0000    0.0000 C   0  0  0  0  0  0  0  0  0  0  0  0
   -0.7500    1.2990    0.0000 C   0  0  0  0  0  0  0  0  0  0  0  0
    0.7500    1.2990    0.0000 C   0  0  0  0  0  0  0  0  0  0  0  0
   -3.0000    0.0000    0.0000 C   0  0  0  0  0  0  0  0  0  0  0  0
   -3.8817   -1.2135    0.0000 C   0  0  0  0  0  0  0  0  0  0  0  0
   -5.3083   -0.7500    0.0000 C   0  0  0  0  0  0  0  0  0  0  0  0
   -5.3083    0.7500    0.0000 N   0  0  0  0  0  0  0  0  0  0  0  0
   -3.8817    1.2135    0.0000 N   0  0  0  0  0  0  0  0  0  0  0  0
   -3.4182    2.6401    0.0000 C   0  0  0  0  0  0  0  0  0  0  0  0
   -1.9509    2.9520    0.0000 C   0  0  0  0  0  0  0  0  0  0  0  0
   -1.4874    4.3786    0.0000 C   0  0  0  0  0  0  0  0  0  0  0  0
   -2.4911    5.4933    0.0000 C   0  0  0  0  0  0  0  0  0  0  0  0
   -3.9583    5.1814    0.0000 C   0  0  0  0  0  0  0  0  0  0  0  0
   -4.4218    3.7548    0.0000 C   0  0  0  0  0  0  0  0  0  0  0  0
   -2.0276    6.9199    0.0000 S   0  0  0  0  0  0  0  0  0  0  0  0
   -0.6010    6.4563    0.0000 O   0  0  0  0  0  0  0  0  0  0  0  0
   -3.4542    7.3834    0.0000 O   0  0  0  0  0  0  0  0  0  0  0  0
   -1.5641    8.3464    0.0000 N   0  0  0  0  0  0  0  0  0  0  0  0
   -6.5218   -1.6317    0.0000 C   0  0  0  0  0  0  0  0  0  0  0  0
   -7.7353   -2.5134    0.0000 F   0  0  0  0  0  0  0  0  0  0  0  0
   -7.4035   -0.4182    0.0000 F   0  0  0  0  0  0  0  0  0  0  0  0
   -5.6401   -2.8452    0.0000 F   0  0  0  0  0  0  0  0  0  0  0  0
  1  2  1  0
  2  3  2  0
  3  4  1  0
  4  5  2  0
  5  6  1  0
  6  7  2  0
  5  8  1  0
  8  9  2  0
  9 10  1  0
 10 11  2  0
 11 12  1  0
 12 13  1  0
 13 14  2  0
 14 15  1  0
 15 16  2  0
 16 17  1  0
 17 18  2  0
 16 19  1  0
 19 20  2  0
 19 21  2  0
 19 22  1  0
 10 23  1  0
 23 24  1  0
 23 25  1  0
 23 26  1  0
  7  2  1  0
 12  8  1  0
 18 13  1  0
M  END
$$$$
56131
     RDKit          2D

 21 22  0  0  0  0  0  0  0  0999 V2000
   11.8477    2.3556    0.0000 C   0  0  0  0  0  0  0  0  0  0  0  0
   10.3644    2.5791    0.0000 C   0  0  0  0  0  0  0  0  0  0  0  0
    9.4292    1.4064    0.0000 C   0  0  0  0  0  0  0  0  0  0  0  0
    7.9460    1.6299    0.0000 C   0  0  0  0  0  0  0  0  0  0  0  0
    7.3980    3.0263    0.0000 C   0  0  0  0  0  0  0  0  0  0  0  0
    8.3332    4.1990    0.0000 C   0  0  0  0  0  0  0  0  0  0  0  0
    9.8164    3.9754    0.0000 C   0  0  0  0  0  0  0  0  0  0  0  0
    5.9147    3.2498    0.0000 S   0  0  0  0  0  0  0  0  0  0  0  0
    5.6911    1.7666    0.0000 O   0  0  0  0  0  0  0  0  0  0  0  0
    6.1383    4.7331    0.0000 O   0  0  0  0  0  0  0  0  0  0  0  0
    4.4315    3.4734    0.0000 N   0  0  0  0  0  0  0  0  0  0  0  0
    3.4962    2.3006    0.0000 C   0  0  0  0  0  0  0  0  0  0  0  0
    4.0442    0.9043    0.0000 O   0  0  0  0  0  0  0  0  0  0  0  0
    2.0130    2.5242    0.0000 N   0  0  0  0  0  0  0  0  0  0  0  0
    1.0777    1.3515    0.0000 N   0  0  0  0  0  0  0  0  0  0  0  0
    1.7286    0.0000    0.0000 C   0  0  0  0  0  0  0  0  0  0  0  0
    1.0777   -1.3515    0.0000 C   0  0  0  0  0  0  0  0  0  0  0  0
   -0.3846   -1.6852    0.0000 C   0  0  0  0  0  0  0  0  0  0  0  0
   -1.5574   -0.7500    0.0000 C   0  0  0  0  0  0  0  0  0  0  0  0
   -1.5574    0.7500    0.0000 C   0  0  0  0  0  0  0  0  0  0  0  0
   -0.3846    1.6852    0.0000 C   0  0  0  0  0  0  0  0  0  0  0  0
  1  2  1  0
  2  3  2  0
  3  4  1  0
  4  5  2  0
  5  6  1  0
  6  7  2  0
  5  8  1  0
  8  9  2  0
  8 10  2  0
  8 11  1  0
 11 12  1  0
 12 13  2  0
 12 14  1  0
 14 15  1  0
 15 16  1  0
 16 17  1  0
 17 18  1  0
 18 19  1  0
 19 20  1  0
 20 21  1  0
  7  2  1  0
 21 15  1  0
M  END
$$$$
226880
     RDKit          2D

 26 28  0  0  0  0  0  0  0  0999 V2000
    3.0000    0.0000    0.0000 C   0  0  0  0  0  0  0  0  0  0  0  0
    1.5000    0.0000    0.0000 C   0  0  0  0  0  0  0  0  0  0  0  0
    0.7500   -1.2990    0.0000 C   0  0  0  0  0  0  0  0  0  0  0  0
   -0.7500   -1.2990    0.0000 C   0  0  0  0  0  0  0  0  0  0  0  0
   -1.5000    0.0000    0.0000 C   0  0  0  0  0  0  0  0  0  0  0  0
   -0.7500    1.2990    0.0000 C   0  0  0  0  0  0  0  0  0  0  0  0
    0.7500    1.2990    0.0000 C   0  0  0  0  0  0  0  0  0  0  0  0
   -3.0000    0.0000    0.0000 C   0  0  0  0  0  0  0  0  0  0  0  0
   -3.7500   -1.2990    0.0000 C   0  0  0  0  0  0  0  0  0  0  0  0
   -3.0000   -2.5981    0.0000 C   0  0  0  0  0  0  0  0  0  0  0  0
   -3.7500   -3.8971    0.0000 N   0  0  0  0  0  0  0  0  0  0  0  0
   -3.1399   -5.2674    0.0000 C   0  0  0  0  0  0  0  0  0  0  0  0
   -4.2546   -6.2711    0.0000 C   0  0  0  0  0  0  0  0  0  0  0  0
   -5.5537   -5.5211    0.0000 C   0  0  0  0  0  0  0  0  0  0  0  0
   -5.2418   -4.0539    0.0000 C   0  0  0  0  0  0  0  0  0  0  0  0
   -3.7500    1.2990    0.0000 C   0  0  0  0  0  0  0  0  0  0  0  0
   -3.0000    2.5981    0.0000 C   0  0  0  0  0  0  0  0  0  0  0  0
   -3.7500    3.8971    0.0000 C   0  0  0  0  0  0  0  0  0  0  0  0
   -5.2500    3.8971    0.0000 C   0  0  0  0  0  0  0  0  0  0  0  0
   -6.0000    2.5981    0.0000 C   0  0  0  0  0  0  0  0  0  0  0  0
   -7.5000    2.5981    0.0000 C   0  0  0  0  0  0  0  0  0  0  0  0
   -8.2500    3.8971    0.0000 C   0  0  0  0  0  0  0  0  0  0  0  0
   -9.7500    3.8971    0.0000 C   0  0  0  0  0  0  0  0  0  0  0  0
  -10.5000    2.5981    0.0000 O   0  0  0  0  0  0  0  0  0  0  0  0
  -10.5000    5.1962    0.0000 O   0  0  0  0  0  0  0  0  0  0  0  0
   -5.2500    1.2990    0.0000 N   0  0  0  0  0  0  0  0  0  0  0  0
  1  2  1  0
  2  3  2  0
  3  4  1  0
  4  5  2  0
  5  6  1  0
  6  7  2  0
  5  8  1  0
  8  9  2  0
  9 10  1  0
 10 11  1  0
 11 12  1  0
 12 13  1  0
 13 14  1  0
 14 15  1  0
  8 16  1  0
 16 17  2  0
 17 18  1  0
 18 19  2  0
 19 20  1  0
 20 21  1  0
 21 22  2  0
 22 23  1  0
 23 24  2  0
 23 25  1  0
 20 26  2  0
  7  2  1  0
 15 11  1  0
 26 16  1  0
M  END
$$$$
65539
     RDKit          2D

 21 23  0  0  0  0  0  0  0  0999 V2000
    3.0000    0.0000    0.0000 C   0  0  0  0  0  0  0  0  0  0  0  0
    1.5000    0.0000    0.0000 C   0  0  0  0  0  0  0  0  0  0  0  0
    0.7500   -1.2990    0.0000 C   0  0  0  0  0  0  0  0  0  0  0  0
   -0.7500   -1.2990    0.0000 C   0  0  0  0  0  0  0  0  0  0  0  0
   -1.5000    0.0000    0.0000 C   0  0  0  0  0  0  0  0  0  0  0  0
   -0.7500    1.2990    0.0000 C   0  0  0  0  0  0  0  0  0  0  0  0
    0.7500    1.2990    0.0000 C   0  0  0  0  0  0  0  0  0  0  0  0
   -3.0000    0.0000    0.0000 C   0  0  0  0  0  0  0  0  0  0  0  0
   -3.7500   -1.2990    0.0000 C   0  0  0  0  0  0  0  0  0  0  0  0
   -3.0000   -2.5981    0.0000 C   0  0  0  0  0  0  0  0  0  0  0  0
   -3.7500   -3.8971    0.0000 N   0  0  0  0  0  0  0  0  0  0  0  0
   -3.1399   -5.2674    0.0000 C   0  0  0  0  0  0  0  0  0  0  0  0
   -4.2546   -6.2711    0.0000 C   0  0  0  0  0  0  0  0  0  0  0  0
   -5.5537   -5.5211    0.0000 C   0  0  0  0  0  0  0  0  0  0  0  0
   -5.2418   -4.0539    0.0000 C   0  0  0  0  0  0  0  0  0  0  0  0
   -3.7500    1.2990    0.0000 C   0  0  0  0  0  0  0  0  0  0  0  0
   -3.0000    2.5981    0.0000 C   0  0  0  0  0  0  0  0  0  0  0  0
   -3.7500    3.8971    0.0000 C   0  0  0  0  0  0  0  0  0  0  0  0
   -5.2500    3.8971    0.0000 C   0  0  0  0  0  0  0  0  0  0  0  0
   -6.0000    2.5981    0.0000 C   0  0  0  0  0  0  0  0  0  0  0  0
   -5.2500    1.2990    0.0000 N   0  0  0  0  0  0  0  0  0  0  0  0
  1  2  1  0
  2  3  2  0
  3  4  1  0
  4  5  2  0
  5  6  1  0
  6  7  2  0
  5  8  1  0
  8  9  2  0
  9 10  1  0
 10 11  1  0
 11 12  1  0
 12 13  1  0
 13 14  1  0
 14 15  1  0
  8 16  1  0
 16 17  2  0
 17 18  1  0
 18 19  2  0
 19 20  1  0
 20 21  2  0
  7  2  1  0
 15 11  1  0
 21 16  1  0
M  END
$$$$
1351917
     RDKit          2D

 31 34  0  0  0  0  0  0  0  0999 V2000
    3.0000    0.0000    0.0000 C   0  0  0  0  0  0  0  0  0  0  0  0
    1.5000    0.0000    0.0000 C   0  0  0  0  0  0  0  0  0  0  0  0
    0.7500   -1.2990    0.0000 C   0  0  0  0  0  0  0  0  0  0  0  0
   -0.7500   -1.2990    0.0000 C   0  0  0  0  0  0  0  0  0  0  0  0
   -1.5000    0.0000    0.0000 C   0  0  0  0  0  0  0  0  0  0  0  0
   -0.7500    1.2990    0.0000 C   0  0  0  0  0  0  0  0  0  0  0  0
    0.7500    1.2990    0.0000 C   0  0  0  0  0  0  0  0  0  0  0  0
    1.5000    2.5981    0.0000 C   0  0  0  0  0  0  0  0  0  0  0  0
    0.7500    3.8971    0.0000 C   0  0  0  0  0  0  0  0  0  0  0  0
   -0.7418    4.0539    0.0000 C   0  0  0  0  0  0  0  0  0  0  0  0
   -1.0537    5.5211    0.0000 C   0  0  0  0  0  0  0  0  0  0  0  0
    0.2454    6.2711    0.0000 C   0  0  0  0  0  0  0  0  0  0  0  0
    1.3601    5.2674    0.0000 S   0  0  0  0  0  0  0  0  0  0  0  0
    0.4022    7.7629    0.0000 C   0  0  0  0  0  0  0  0  0  0  0  0
    1.7725    8.3730    0.0000 C   0  0  0  0  0  0  0  0  0  0  0  0
    1.9293    9.8648    0.0000 C   0  0  0  0  0  0  0  0  0  0  0  0
    0.7158   10.7465    0.0000 C   0  0  0  0  0  0  0  0  0  0  0  0
    0.8726   12.2383    0.0000 F   0  0  0  0  0  0  0  0  0  0  0  0
   -0.6546   10.1364    0.0000 C   0  0  0  0  0  0  0  0  0  0  0  0
   -0.8113    8.6446    0.0000 C   0  0  0  0  0  0  0  0  0  0  0  0
   -3.0000    0.0000    0.0000 C   0  0  0  0  0  0  0  0  0  0  0  0
   -3.7500    1.2990    0.0000 O   0  0  0  0  0  0  0  0  0  0  0  0
   -5.2500    1.2990    0.0000 C   0  0  0  0  0  0  0  0  0  0  0  0
   -6.0000    2.5981    0.0000 C   0  0  0  0  0  0  0  0  0  0  0  0
   -5.2500    3.8971    0.0000 O   0  0  0  0  0  0  0  0  0  0  0  0
   -6.0000    0.0000    0.0000 C   0  0  0  0  0  0  0  0  0  0  0  0
   -7.5000    0.0000    0.0000 O   0  0  0  0  0  0  0  0  0  0  0  0
   -5.2500   -1.2990    0.0000 C   0  0  0  0  0  0  0  0  0  0  0  0
   -6.0000   -2.5981    0.0000 O   0  0  0  0  0  0  0  0  0  0  0  0
   -3.7500   -1.2990    0.0000 C   0  0  0  0  0  0  0  0  0  0  0  0
   -3.0000   -2.5981    0.0000 O   0  0  0  0  0  0  0  0  0  0  0  0
  1  2  1  0
  2  3  2  0
  3  4  1  0
  4  5  2  0
  5  6  1  0
  6  7  2  0
  7  8  1  0
  8  9  1  0
  9 10  2  0
 10 11  1  0
 11 12  2  0
 12 13  1  0
 12 14  1  0
 14 15  2  0
 15 16  1  0
 16 17  2  0
 17 18  1  0
 17 19  1  0
 19 20  2  0
 21  5  1  1
 21 22  1  0
 22 23  1  0
 23 24  1  1
 24 25  1  0
 23 26  1  0
 26 27  1  6
 26 28  1  0
 28 29  1  1
 28 30  1  0
 30 31  1  6
  7  2  1  0
 13  9  1  0
 20 14  1  0
 30 21  1  0
M  END
$$$$
10531
     RDKit          2D

 19 20  0  0  0  0  0  0  0  0999 V2000
    3.0000    0.0000    0.0000 C   0  0  0  0  0  0  0  0  0  0  0  0
    1.5000    0.0000    0.0000 C   0  0  0  0  0  0  0  0  0  0  0  0
    0.7500   -1.2990    0.0000 C   0  0  0  0  0  0  0  0  0  0  0  0
   -0.7500   -1.2990    0.0000 C   0  0  0  0  0  0  0  0  0  0  0  0
   -1.5000    0.0000    0.0000 C   0  0  0  0  0  0  0  0  0  0  0  0
   -3.0000    0.0000    0.0000 Cl  0  0  0  0  0  0  0  0  0  0  0  0
   -0.7500    1.2990    0.0000 C   0  0  0  0  0  0  0  0  0  0  0  0
   -1.5000    2.5981    0.0000 N   0  0  0  0  0  0  0  0  0  0  0  0
   -0.7500    3.8971    0.0000 C   0  0  0  0  0  0  0  0  0  0  0  0
    0.7500    3.8971    0.0000 C   0  0  0  0  0  0  0  0  0  0  0  0
    1.5000    5.1962    0.0000 C   0  0  0  0  0  0  0  0  0  0  0  0
    0.7500    6.4952    0.0000 C   0  0  0  0  0  0  0  0  0  0  0  0
   -0.7500    6.4952    0.0000 C   0  0  0  0  0  0  0  0  0  0  0  0
   -1.5000    5.1962    0.0000 C   0  0  0  0  0  0  0  0  0  0  0  0
   -3.0000    5.1962    0.0000 C   0  0  0  0  0  0  0  0  0  0  0  0
   -3.7500    3.8971    0.0000 O   0  0  0  0  0  0  0  0  0  0  0  0
   -3.7500    6.4952    0.0000 O   0  0  0  0  0  0  0  0  0  0  0  0
    0.7500    1.2990    0.0000 C   0  0  0  0  0  0  0  0  0  0  0  0
    1.5000    2.5981    0.0000 Cl  0  0  0  0  0  0  0  0  0  0  0  0
  1  2  1  0
  2  3  2  0
  3  4  1  0
  4  5  2  0
  5  6  1  0
  5  7  1  0
  7  8  1  0
  8  9  1  0
  9 10  2  0
 10 11  1  0
 11 12  2  0
 12 13  1  0
 13 14  2  0
 14 15  1  0
 15 16  2  0
 15 17  1  0
  7 18  2  0
 18 19  1  0
 18  2  1  0
 14  9  1  0
M  END
$$$$
1376140
     RDKit          2D

 33 37  0  0  0  0  0  0  0  0999 V2000
   -3.9849   -8.8962    0.0000 C   0  0  0  0  0  0  0  0  0  0  0  0
   -2.8358   -7.9320    0.0000 C   0  0  0  0  0  0  0  0  0  0  0  0
   -3.0963   -6.4548    0.0000 C   0  0  0  0  0  0  0  0  0  0  0  0
   -1.9472   -5.4906    0.0000 C   0  0  0  0  0  0  0  0  0  0  0  0
   -0.5377   -6.0037    0.0000 C   0  0  0  0  0  0  0  0  0  0  0  0
    0.6114   -5.0395    0.0000 N   0  0  0  0  0  0  0  0  0  0  0  0
    0.3509   -3.5623    0.0000 C   0  0  0  0  0  0  0  0  0  0  0  0
   -1.0586   -3.0492    0.0000 O   0  0  0  0  0  0  0  0  0  0  0  0
    1.5000   -2.5981    0.0000 C   0  0  0  0  0  0  0  0  0  0  0  0
    2.6491   -3.5623    0.0000 C   0  0  0  0  0  0  0  0  0  0  0  0
    2.9095   -2.0850    0.0000 C   0  0  0  0  0  0  0  0  0  0  0  0
    0.7500   -1.2990    0.0000 C   0  0  0  0  0  0  0  0  0  0  0  0
    1.5000    0.0000    0.0000 C   0  0  0  0  0  0  0  0  0  0  0  0
    0.7500    1.2990    0.0000 C   0  0  0  0  0  0  0  0  0  0  0  0
   -0.7500    1.2990    0.0000 C   0  0  0  0  0  0  0  0  0  0  0  0
   -1.7537    2.4138    0.0000 O   0  0  0  0  0  0  0  0  0  0  0  0
   -3.1240    1.8037    0.0000 C   0  0  0  0  0  0  0  0  0  0  0  0
   -3.5875    3.2302    0.0000 F   0  0  0  0  0  0  0  0  0  0  0  0
   -4.5912    1.4918    0.0000 F   0  0  0  0  0  0  0  0  0  0  0  0
   -2.9672    0.3119    0.0000 O   0  0  0  0  0  0  0  0  0  0  0  0
   -1.5000    0.0000    0.0000 C   0  0  0  0  0  0  0  0  0  0  0  0
   -0.7500   -1.2990    0.0000 C   0  0  0  0  0  0  0  0  0  0  0  0
   -0.2772   -7.4809    0.0000 N   0  0  0  0  0  0  0  0  0  0  0  0
   -1.4263   -8.4450    0.0000 C   0  0  0  0  0  0  0  0  0  0  0  0
   -1.1658   -9.9223    0.0000 C   0  0  0  0  0  0  0  0  0  0  0  0
   -2.3148  -10.8864    0.0000 C   0  0  0  0  0  0  0  0  0  0  0  0
   -2.0544  -12.3636    0.0000 C   0  0  0  0  0  0  0  0  0  0  0  0
   -0.6448  -12.8767    0.0000 C   0  0  0  0  0  0  0  0  0  0  0  0
    0.5042  -11.9125    0.0000 C   0  0  0  0  0  0  0  0  0  0  0  0
    0.2438  -10.4353    0.0000 C   0  0  0  0  0  0  0  0  0  0  0  0
    1.9138  -12.4255    0.0000 C   0  0  0  0  0  0  0  0  0  0  0  0
    3.0628  -11.4613    0.0000 O   0  0  0  0  0  0  0  0  0  0  0  0
    2.1742  -13.9027    0.0000 O   0  0  0  0  0  0  0  0  0  0  0  0
  1  2  1  0
  2  3  2  0
  3  4  1  0
  4  5  2  0
  5  6  1  0
  6  7  1  0
  7  8  2  0
  7  9  1  0
  9 10  1  0
 10 11  1  0
  9 12  1  0
 12 13  2  0
 13 14  1  0
 14 15  2  0
 15 16  1  0
 16 17  1  0
 17 18  1  0
 17 19  1  0
 17 20  1  0
 20 21  1  0
 21 22  2  0
  5 23  1  0
 23 24  2  0
 24 25  1  0
 25 26  2  0
 26 27  1  0
 27 28  2  0
 28 29  1  0
 29 30  2  0
 29 31  1  0
 31 32  2  0
 31 33  1  0
 24  2  1  0
 11  9  1  0
 22 12  1  0
 21 15  1  0
 30 25  1  0
M  END
$$$$
1377263
     RDKit          2D

 21 23  0  0  0  0  0  0  0  0999 V2000
   -6.0000    5.1962    0.0000 C   0  0  0  0  0  0  0  0  0  0  0  0
   -5.2500    3.8971    0.0000 C   0  0  0  0  0  0  0  0  0  0  0  0
   -6.0000    2.5981    0.0000 C   0  0  0  0  0  0  0  0  0  0  0  0
   -5.2500    1.2990    0.0000 C   0  0  0  0  0  0  0  0  0  0  0  0
   -3.7500    1.2990    0.0000 C   0  0  0  0  0  0  0  0  0  0  0  0
   -3.0000    0.0000    0.0000 S   0  0  0  0  0  0  0  0  0  0  0  0
   -3.7500   -1.2990    0.0000 C   0  0  0  0  0  0  0  0  0  0  0  0
   -5.2500   -1.2990    0.0000 C   0  0  0  0  0  0  0  0  0  0  0  0
   -6.0000   -2.5981    0.0000 C   0  0  0  0  0  0  0  0  0  0  0  0
   -5.2500   -3.8971    0.0000 C   0  0  0  0  0  0  0  0  0  0  0  0
   -3.7500   -3.8971    0.0000 C   0  0  0  0  0  0  0  0  0  0  0  0
   -3.0000   -2.5981    0.0000 C   0  0  0  0  0  0  0  0  0  0  0  0
   -1.5000   -2.5981    0.0000 N   0  0  0  0  0  0  0  0  0  0  0  0
   -0.7500   -3.8971    0.0000 C   0  0  0  0  0  0  0  0  0  0  0  0
    0.7500   -3.8971    0.0000 C   0  0  0  0  0  0  0  0  0  0  0  0
    1.5000   -2.5981    0.0000 N   0  0  0  0  0  0  0  0  0  0  0  0
    0.7500   -1.2990    0.0000 C   0  0  0  0  0  0  0  0  0  0  0  0
   -0.7500   -1.2990    0.0000 C   0  0  0  0  0  0  0  0  0  0  0  0
   -3.0000    2.5981    0.0000 C   0  0  0  0  0  0  0  0  0  0  0  0
   -1.5000    2.5981    0.0000 C   0  0  0  0  0  0  0  0  0  0  0  0
   -3.7500    3.8971    0.0000 C   0  0  0  0  0  0  0  0  0  0  0  0
  1  2  1  0
  2  3  2  0
  3  4  1  0
  4  5  2  0
  5  6  1  0
  6  7  1  0
  7  8  2  0
  8  9  1  0
  9 10  2  0
 10 11  1  0
 11 12  2  0
 12 13  1  0
 13 14  1  0
 14 15  1  0
 15 16  1  0
 16 17  1  0
 17 18  1  0
  5 19  1  0
 19 20  1  0
 19 21  2  0
 21  2  1  0
 12  7  1  0
 18 13  1  0
M  END
$$$$
469632
     RDKit          2D

 28 31  0  0  0  0  0  0  0  0999 V2000
    3.0000    0.0000    0.0000 C   0  0  0  0  0  0  0  0  0  0  0  0
    1.5000    0.0000    0.0000 C   0  0  0  0  0  0  0  0  0  0  0  0
    0.7500   -1.2990    0.0000 C   0  0  0  0  0  0  0  0  0  0  0  0
   -0.7500   -1.2990    0.0000 C   0  0  0  0  0  0  0  0  0  0  0  0
   -1.5000    0.0000    0.0000 C   0  0  0  0  0  0  0  0  0  0  0  0
   -0.7500    1.2990    0.0000 C   0  0  0  0  0  0  0  0  0  0  0  0
   -1.5000    2.5981    0.0000 C   0  0  0  0  0  0  0  0  0  0  0  0
   -0.7500    3.8971    0.0000 N   0  0  0  0  0  0  0  0  0  0  0  0
    0.7500    3.8971    0.0000 C   0  0  0  0  0  0  0  0  0  0  0  0
    1.5000    5.1962    0.0000 C   0  0  0  0  0  0  0  0  0  0  0  0
    0.7500    6.4952    0.0000 N   0  0  0  0  0  0  0  0  0  0  0  0
   -0.7500    6.4952    0.0000 C   0  0  0  0  0  0  0  0  0  0  0  0
   -1.5000    5.1962    0.0000 C   0  0  0  0  0  0  0  0  0  0  0  0
    1.5000    7.7942    0.0000 C   0  0  0  0  0  0  0  0  0  0  0  0
    3.0000    7.7942    0.0000 C   0  0  0  0  0  0  0  0  0  0  0  0
    3.7500    6.4952    0.0000 C   0  0  0  0  0  0  0  0  0  0  0  0
    5.2500    6.4952    0.0000 C   0  0  0  0  0  0  0  0  0  0  0  0
    6.0000    7.7942    0.0000 C   0  0  0  0  0  0  0  0  0  0  0  0
    5.2500    9.0933    0.0000 C   0  0  0  0  0  0  0  0  0  0  0  0
    3.7500    9.0933    0.0000 C   0  0  0  0  0  0  0  0  0  0  0  0
    0.7500    9.0933    0.0000 C   0  0  0  0  0  0  0  0  0  0  0  0
    1.5000   10.3923    0.0000 C   0  0  0  0  0  0  0  0  0  0  0  0
    0.7500   11.6913    0.0000 C   0  0  0  0  0  0  0  0  0  0  0  0
   -0.7500   11.6913    0.0000 C   0  0  0  0  0  0  0  0  0  0  0  0
   -1.5000   12.9904    0.0000 Cl  0  0  0  0  0  0  0  0  0  0  0  0
   -1.5000   10.3923    0.0000 C   0  0  0  0  0  0  0  0  0  0  0  0
   -0.7500    9.0933    0.0000 C   0  0  0  0  0  0  0  0  0  0  0  0
    0.7500    1.2990    0.0000 C   0  0  0  0  0  0  0  0  0  0  0  0
  1  2  1  0
  2  3  2  0
  3  4  1  0
  4  5  2  0
  5  6  1  0
  6  7  1  0
  7  8  1  0
  8  9  1  0
  9 10  1  0
 10 11  1  0
 11 12  1  0
 12 13  1  0
 11 14  1  0
 14 15  1  0
 15 16  2  0
 16 17  1  0
 17 18  2  0
 18 19  1  0
 19 20  2  0
 14 21  1  0
 21 22  2  0
 22 23  1  0
 23 24  2  0
 24 25  1  0
 24 26  1  0
 26 27  2  0
  6 28  2  0
 28  2  1  0
 13  8  1  0
 20 15  1  0
 27 21  1  0
M  END
$$$$
29989
     RDKit          2D

 18 19  0  0  0  0  0  0  0  0999 V2000
    3.0000    0.0000    0.0000 C   0  0  0  0  0  0  0  0  0  0  0  0
    1.5000    0.0000    0.0000 C   0  0  0  0  0  0  0  0  0  0  0  0
    0.7500   -1.2990    0.0000 C   0  0  0  0  0  0  0  0  0  0  0  0
   -0.7500   -1.2990    0.0000 C   0  0  0  0  0  0  0  0  0  0  0  0
   -1.5000    0.0000    0.0000 C   0  0  0  0  0  0  0  0  0  0  0  0
   -0.7500    1.2990    0.0000 C   0  0  0  0  0  0  0  0  0  0  0  0
   -1.5000    2.5981    0.0000 N   0  0  0  0  0  0  0  0  0  0  0  0
   -3.0000    2.5981    0.0000 C   0  0  0  0  0  0  0  0  0  0  0  0
   -3.7500    1.2990    0.0000 C   0  0  0  0  0  0  0  0  0  0  0  0
   -5.2500    1.2990    0.0000 C   0  0  0  0  0  0  0  0  0  0  0  0
   -6.0000    2.5981    0.0000 C   0  0  0  0  0  0  0  0  0  0  0  0
   -5.2500    3.8971    0.0000 C   0  0  0  0  0  0  0  0  0  0  0  0
   -3.7500    3.8971    0.0000 C   0  0  0  0  0  0  0  0  0  0  0  0
   -3.0000    5.1962    0.0000 C   0  0  0  0  0  0  0  0  0  0  0  0
   -3.7500    6.4952    0.0000 O   0  0  0  0  0  0  0  0  0  0  0  0
   -1.5000    5.1962    0.0000 O   0  0  0  0  0  0  0  0  0  0  0  0
    0.7500    1.2990    0.0000 C   0  0  0  0  0  0  0  0  0  0  0  0
    1.5000    2.5981    0.0000 C   0  0  0  0  0  0  0  0  0  0  0  0
  1  2  1  0
  2  3  2  0
  3  4  1  0
  4  5  2  0
  5  6  1  0
  6  7  1  0
  7  8  1  0
  8  9  2  0
  9 10  1  0
 10 11  2  0
 11 12  1  0
 12 13  2  0
 13 14  1  0
 14 15  2  0
 14 16  1  0
  6 17  2  0
 17 18  1  0
 17  2  1  0
 13  8  1  0
M  END
$$$$
227437
     RDKit          2D

 32 35  0  0  0  0  0  0  0  0999 V2000
   -7.8068   -9.0693    0.0000 C   0  0  0  0  0  0  0  0  0  0  0  0
   -9.2692   -8.7355    0.0000 C   0  0  0  0  0  0  0  0  0  0  0  0
  -10.2894   -9.8350    0.0000 C   0  0  0  0  0  0  0  0  0  0  0  0
  -11.7518   -9.5013    0.0000 C   0  0  0  0  0  0  0  0  0  0  0  0
  -12.1940   -8.0679    0.0000 C   0  0  0  0  0  0  0  0  0  0  0  0
  -11.1737   -6.9683    0.0000 C   0  0  0  0  0  0  0  0  0  0  0  0
   -9.7113   -7.3021    0.0000 C   0  0  0  0  0  0  0  0  0  0  0  0
   -8.6911   -6.2025    0.0000 C   0  0  0  0  0  0  0  0  0  0  0  0
   -9.1332   -4.7692    0.0000 O   0  0  0  0  0  0  0  0  0  0  0  0
   -7.2287   -6.5363    0.0000 N   0  0  0  0  0  0  0  0  0  0  0  0
   -6.2084   -5.4367    0.0000 C   0  0  0  0  0  0  0  0  0  0  0  0
   -4.7460   -5.7705    0.0000 C   0  0  0  0  0  0  0  0  0  0  0  0
   -3.7258   -4.6709    0.0000 C   0  0  0  0  0  0  0  0  0  0  0  0
   -4.1679   -3.2376    0.0000 C   0  0  0  0  0  0  0  0  0  0  0  0
   -3.1476   -2.1380    0.0000 C   0  0  0  0  0  0  0  0  0  0  0  0
   -3.5898   -0.7046    0.0000 O   0  0  0  0  0  0  0  0  0  0  0  0
   -1.6852   -2.4718    0.0000 N   0  0  0  0  0  0  0  0  0  0  0  0
   -1.3515   -3.9342    0.0000 C   0  0  0  0  0  0  0  0  0  0  0  0
   -0.0000   -4.5850    0.0000 C   0  0  0  0  0  0  0  0  0  0  0  0
    1.3515   -3.9342    0.0000 C   0  0  0  0  0  0  0  0  0  0  0  0
    1.6852   -2.4718    0.0000 C   0  0  0  0  0  0  0  0  0  0  0  0
    3.1476   -2.1380    0.0000 O   0  0  0  0  0  0  0  0  0  0  0  0
    0.7500   -1.2990    0.0000 C   0  0  0  0  0  0  0  0  0  0  0  0
    1.5000    0.0000    0.0000 C   0  0  0  0  0  0  0  0  0  0  0  0
    0.7500    1.2990    0.0000 C   0  0  0  0  0  0  0  0  0  0  0  0
    1.5000    2.5981    0.0000 Cl  0  0  0  0  0  0  0  0  0  0  0  0
   -0.7500    1.2990    0.0000 C   0  0  0  0  0  0  0  0  0  0  0  0
   -1.5000    0.0000    0.0000 C   0  0  0  0  0  0  0  0  0  0  0  0
   -0.7500   -1.2990    0.0000 C   0  0  0  0  0  0  0  0  0  0  0  0
   -5.6303   -2.9038    0.0000 C   0  0  0  0  0  0  0  0  0  0  0  0
   -6.0724   -1.4704    0.0000 C   0  0  0  0  0  0  0  0  0  0  0  0
   -6.6505   -4.0034    0.0000 C   0  0  0  0  0  0  0  0  0  0  0  0
  1  2  1  0
  2  3  2  0
  3  4  1  0
  4  5  2  0
  5  6  1  0
  6  7  2  0
  7  8  1  0
  8  9  2  0
  8 10  1  0
 10 11  1  0
 11 12  2  0
 12 13  1  0
 13 14  2  0
 14 15  1  0
 15 16  2  0
 15 17  1  0
 17 18  1  0
 18 19  1  0
 19 20  1  0
 20 21  1  0
 21 22  1  0
 21 23  1  0
 23 24  2  0
 24 25  1  0
 25 26  1  0
 25 27  2  0
 27 28  1  0
 28 29  2  0
 14 30  1  0
 30 31  1  0
 30 32  2  0
  7  2  1  0
 32 11  1  0
 29 17  1  0
 29 23  1  0
M  END
$$$$
2130
     RDKit          2D

 18 19  0  0  0  0  0  0  0  0999 V2000
    3.0000    0.0000    0.0000 C   0  0  0  0  0  0  0  0  0  0  0  0
    1.5000    0.0000    0.0000 C   0  0  0  0  0  0  0  0  0  0  0  0
    0.7500   -1.2990    0.0000 C   0  0  0  0  0  0  0  0  0  0  0  0
   -0.7500   -1.2990    0.0000 C   0  0  0  0  0  0  0  0  0  0  0  0
   -1.5000    0.0000    0.0000 N   0  0  0  0  0  0  0  0  0  0  0  0
   -0.7500    1.2990    0.0000 C   0  0  0  0  0  0  0  0  0  0  0  0
   -1.5000    2.5981    0.0000 N   0  0  0  0  0  0  0  0  0  0  0  0
   -0.7500    3.8971    0.0000 S   0  0  0  0  0  0  0  0  0  0  0  0
    0.5490    3.1471    0.0000 O   0  0  0  0  0  0  0  0  0  0  0  0
   -2.0490    4.6471    0.0000 O   0  0  0  0  0  0  0  0  0  0  0  0
    0.0000    5.1962    0.0000 C   0  0  0  0  0  0  0  0  0  0  0  0
    1.5000    5.1962    0.0000 C   0  0  0  0  0  0  0  0  0  0  0  0
    2.2500    6.4952    0.0000 C   0  0  0  0  0  0  0  0  0  0  0  0
    1.5000    7.7942    0.0000 C   0  0  0  0  0  0  0  0  0  0  0  0
    2.2500    9.0933    0.0000 N   0  0  0  0  0  0  0  0  0  0  0  0
    0.0000    7.7942    0.0000 C   0  0  0  0  0  0  0  0  0  0  0  0
   -0.7500    6.4952    0.0000 C   0  0  0  0  0  0  0  0  0  0  0  0
    0.7500    1.2990    0.0000 N   0  0  0  0  0  0  0  0  0  0  0  0
  1  2  1  0
  2  3  2  0
  3  4  1  0
  4  5  2  0
  5  6  1  0
  6  7  1  0
  7  8  1  0
  8  9  2  0
  8 10  2  0
  8 11  1  0
 11 12  2  0
 12 13  1  0
 13 14  2  0
 14 15  1  0
 14 16  1  0
 16 17  2  0
  6 18  2  0
 18  2  1  0
 17 11  1  0
M  END
$$$$
4345
     RDKit          2D

 20 23  0  0  0  0  0  0  0  0999 V2000
   -1.4635   -6.7316    0.0000 C   0  0  0  0  0  0  0  0  0  0  0  0
   -0.1121   -6.0808    0.0000 C   0  0  0  0  0  0  0  0  0  0  0  0
    1.1273   -6.9258    0.0000 C   0  0  0  0  0  0  0  0  0  0  0  0
    2.4787   -6.2750    0.0000 C   0  0  0  0  0  0  0  0  0  0  0  0
    2.5908   -4.7792    0.0000 N   0  0  0  0  0  0  0  0  0  0  0  0
    1.3515   -3.9342    0.0000 C   0  0  0  0  0  0  0  0  0  0  0  0
    1.6852   -2.4718    0.0000 N   0  0  0  0  0  0  0  0  0  0  0  0
    3.1476   -2.1380    0.0000 C   0  0  0  0  0  0  0  0  0  0  0  0
    4.2472   -1.1177    0.0000 C   0  0  0  0  0  0  0  0  0  0  0  0
    4.5810   -2.5801    0.0000 C   0  0  0  0  0  0  0  0  0  0  0  0
    0.7500   -1.2990    0.0000 C   0  0  0  0  0  0  0  0  0  0  0  0
    1.5000    0.0000    0.0000 N   0  0  0  0  0  0  0  0  0  0  0  0
    0.7500    1.2990    0.0000 C   0  0  0  0  0  0  0  0  0  0  0  0
   -0.7500    1.2990    0.0000 C   0  0  0  0  0  0  0  0  0  0  0  0
   -1.5000    0.0000    0.0000 C   0  0  0  0  0  0  0  0  0  0  0  0
   -0.7500   -1.2990    0.0000 C   0  0  0  0  0  0  0  0  0  0  0  0
   -1.6852   -2.4718    0.0000 C   0  0  0  0  0  0  0  0  0  0  0  0
   -3.1476   -2.1380    0.0000 O   0  0  0  0  0  0  0  0  0  0  0  0
   -1.3515   -3.9342    0.0000 N   0  0  0  0  0  0  0  0  0  0  0  0
    0.0000   -4.5850    0.0000 C   0  0  0  0  0  0  0  0  0  0  0  0
  1  2  1  0
  2  3  2  0
  3  4  1  0
  4  5  2  0
  5  6  1  0
  6  7  1  0
  7  8  1  0
  8  9  1  0
  9 10  1  0
  7 11  1  0
 11 12  2  0
 12 13  1  0
 13 14  2  0
 14 15  1  0
 15 16  2  0
 16 17  1  0
 17 18  2  0
 17 19  1  0
 19 20  1  0
 20  2  1  0
 20  6  2  0
 10  8  1  0
 16 11  1  0
M  END
$$$$
122170
     RDKit          2D

 25 27  0  0  0  0  0  0  0  0999 V2000
   -0.5773   -9.4764    0.0000 C   0  0  0  0  0  0  0  0  0  0  0  0
    0.8899   -9.1645    0.0000 C   0  0  0  0  0  0  0  0  0  0  0  0
    2.0046  -10.1682    0.0000 C   0  0  0  0  0  0  0  0  0  0  0  0
    3.3037   -9.4182    0.0000 C   0  0  0  0  0  0  0  0  0  0  0  0
    2.9918   -7.9510    0.0000 S   0  0  0  0  0  0  0  0  0  0  0  0
    1.5000   -7.7942    0.0000 C   0  0  0  0  0  0  0  0  0  0  0  0
    0.7500   -6.4952    0.0000 C   0  0  0  0  0  0  0  0  0  0  0  0
    1.5000   -5.1962    0.0000 C   0  0  0  0  0  0  0  0  0  0  0  0
    0.7500   -3.8971    0.0000 C   0  0  0  0  0  0  0  0  0  0  0  0
    1.5000   -2.5981    0.0000 C   0  0  0  0  0  0  0  0  0  0  0  0
    0.7500   -1.2990    0.0000 N   0  0  0  0  0  0  0  0  0  0  0  0
    1.5000    0.0000    0.0000 C   0  0  0  0  0  0  0  0  0  0  0  0
    0.7500    1.2990    0.0000 C   0  0  0  0  0  0  0  0  0  0  0  0
   -0.7500    1.2990    0.0000 C   0  0  0  0  0  0  0  0  0  0  0  0
   -1.5000    0.0000    0.0000 C   0  0  0  0  0  0  0  0  0  0  0  0
   -0.7500   -1.2990    0.0000 C   0  0  0  0  0  0  0  0  0  0  0  0
   -3.0000    0.0000    0.0000 C   0  0  0  0  0  0  0  0  0  0  0  0
   -3.7500   -1.2990    0.0000 O   0  0  0  0  0  0  0  0  0  0  0  0
   -3.7500    1.2990    0.0000 O   0  0  0  0  0  0  0  0  0  0  0  0
   -0.7500   -6.4952    0.0000 C   0  0  0  0  0  0  0  0  0  0  0  0
   -1.6317   -7.7087    0.0000 S   0  0  0  0  0  0  0  0  0  0  0  0
   -3.0583   -7.2452    0.0000 C   0  0  0  0  0  0  0  0  0  0  0  0
   -3.0583   -5.7452    0.0000 C   0  0  0  0  0  0  0  0  0  0  0  0
   -1.6317   -5.2817    0.0000 C   0  0  0  0  0  0  0  0  0  0  0  0
   -1.1682   -3.8551    0.0000 C   0  0  0  0  0  0  0  0  0  0  0  0
  1  2  1  0
  2  3  1  0
  3  4  2  0
  4  5  1  0
  5  6  1  0
  6  7  1  0
  7  8  2  0
  8  9  1  0
  9 10  1  0
 10 11  1  0
 11 12  1  0
 12 13  1  0
 13 14  1  0
 14 15  1  0
 15 16  1  0
 15 17  1  6
 17 18  2  0
 17 19  1  0
  7 20  1  0
 20 21  1  0
 21 22  1  0
 22 23  2  0
 23 24  1  0
 24 25  1  0
  6  2  2  0
 16 11  1  0
 24 20  2  0
M  END
$$$$
17136
     RDKit          2D

 26 29  0  0  0  0  0  0  0  0999 V2000
    0.7500   -6.4952    0.0000 C   0  0  0  0  0  0  0  0  0  0  0  0
    1.5000   -5.1962    0.0000 C   0  0  0  0  0  0  0  0  0  0  0  0
    0.7500   -3.8971    0.0000 C   0  0  0  0  0  0  0  0  0  0  0  0
    1.5000   -2.5981    0.0000 N   0  0  0  0  0  0  0  0  0  0  0  0
    3.0000   -2.5981    0.0000 C   0  0  0  0  0  0  0  0  0  0  0  0
    3.7500   -3.8971    0.0000 C   0  0  0  0  0  0  0  0  0  0  0  0
    3.0000   -5.1962    0.0000 N   0  0  0  0  0  0  0  0  0  0  0  0
    0.7500   -1.2990    0.0000 C   0  0  0  0  0  0  0  0  0  0  0  0
    1.5000    0.0000    0.0000 C   0  0  0  0  0  0  0  0  0  0  0  0
    0.7500    1.2990    0.0000 C   0  0  0  0  0  0  0  0  0  0  0  0
    1.5000    2.5981    0.0000 N   0  0  0  0  0  0  0  0  0  0  0  0
    0.7500    3.8971    0.0000 C   0  0  0  0  0  0  0  0  0  0  0  0
   -0.7500    3.8971    0.0000 C   0  0  0  0  0  0  0  0  0  0  0  0
   -1.5000    5.1962    0.0000 C   0  0  0  0  0  0  0  0  0  0  0  0
   -3.0000    5.1962    0.0000 O   0  0  0  0  0  0  0  0  0  0  0  0
   -0.7500    6.4952    0.0000 O   0  0  0  0  0  0  0  0  0  0  0  0
   -1.5000    2.5981    0.0000 C   0  0  0  0  0  0  0  0  0  0  0  0
   -3.0000    2.5981    0.0000 O   0  0  0  0  0  0  0  0  0  0  0  0
   -0.7500    1.2990    0.0000 C   0  0  0  0  0  0  0  0  0  0  0  0
   -1.5000    0.0000    0.0000 C   0  0  0  0  0  0  0  0  0  0  0  0
   -3.0000    0.0000    0.0000 C   0  0  0  0  0  0  0  0  0  0  0  0
   -0.7500   -1.2990    0.0000 C   0  0  0  0  0  0  0  0  0  0  0  0
   -1.5000   -2.5981    0.0000 F   0  0  0  0  0  0  0  0  0  0  0  0
    3.0000    2.5981    0.0000 C   0  0  0  0  0  0  0  0  0  0  0  0
    4.2990    3.3481    0.0000 C   0  0  0  0  0  0  0  0  0  0  0  0
    4.2990    1.8481    0.0000 C   0  0  0  0  0  0  0  0  0  0  0  0
  1  2  1  0
  2  3  1  0
  3  4  1  0
  4  5  1  0
  5  6  1  0
  6  7  1  0
  4  8  1  0
  8  9  2  0
  9 10  1  0
 10 11  1  0
 11 12  1  0
 12 13  2  0
 13 14  1  0
 14 15  2  0
 14 16  1  0
 13 17  1  0
 17 18  2  0
 17 19  1  0
 19 20  1  0
 20 21  1  0
 20 22  2  0
 22 23  1  0
 11 24  1  0
 24 25  1  0
 25 26  1  0
  7  2  1  0
 22  8  1  0
 19 10  2  0
 26 24  1  0
M  END
$$$$
426660
     RDKit          2D

 39 43  0  0  0  0  0  0  0  0999 V2000
    4.6740   -4.8322    0.0000 C   0  0  0  0  0  0  0  0  0  0  0  0
    3.3037   -4.2221    0.0000 C   0  0  0  0  0  0  0  0  0  0  0  0
    2.9918   -2.7549    0.0000 C   0  0  0  0  0  0  0  0  0  0  0  0
    1.5000   -2.5981    0.0000 N   0  0  0  0  0  0  0  0  0  0  0  0
    0.8899   -3.9684    0.0000 C   0  0  0  0  0  0  0  0  0  0  0  0
    2.0046   -4.9721    0.0000 N   0  0  0  0  0  0  0  0  0  0  0  0
    0.7500   -1.2990    0.0000 C   0  0  0  0  0  0  0  0  0  0  0  0
    1.5000    0.0000    0.0000 C   0  0  0  0  0  0  0  0  0  0  0  0
    0.7500    1.2990    0.0000 C   0  0  0  0  0  0  0  0  0  0  0  0
    1.5000    2.5981    0.0000 N   0  0  0  0  0  0  0  0  0  0  0  0
    3.0000    2.5981    0.0000 C   0  0  0  0  0  0  0  0  0  0  0  0
    3.7500    1.2990    0.0000 O   0  0  0  0  0  0  0  0  0  0  0  0
    3.7500    3.8971    0.0000 C   0  0  0  0  0  0  0  0  0  0  0  0
    5.2500    3.8971    0.0000 C   0  0  0  0  0  0  0  0  0  0  0  0
    6.0000    5.1962    0.0000 C   0  0  0  0  0  0  0  0  0  0  0  0
    5.2500    6.4952    0.0000 C   0  0  0  0  0  0  0  0  0  0  0  0
    6.0000    7.7942    0.0000 C   0  0  0  0  0  0  0  0  0  0  0  0
    3.7500    6.4952    0.0000 C   0  0  0  0  0  0  0  0  0  0  0  0
    3.0000    7.7942    0.0000 N   0  0  0  0  0  0  0  0  0  0  0  0
    1.5000    7.7942    0.0000 C   0  0  0  0  0  0  0  0  0  0  0  0
    0.7500    9.0933    0.0000 N   0  0  0  0  0  0  0  0  0  0  0  0
   -0.7500    9.0933    0.0000 C   0  0  0  0  0  0  0  0  0  0  0  0
   -1.5000    7.7942    0.0000 C   0  0  0  0  0  0  0  0  0  0  0  0
   -0.7500    6.4952    0.0000 C   0  0  0  0  0  0  0  0  0  0  0  0
    0.7500    6.4952    0.0000 N   0  0  0  0  0  0  0  0  0  0  0  0
   -1.5000    5.1962    0.0000 C   0  0  0  0  0  0  0  0  0  0  0  0
   -3.0000    5.1962    0.0000 C   0  0  0  0  0  0  0  0  0  0  0  0
   -3.7500    3.8971    0.0000 C   0  0  0  0  0  0  0  0  0  0  0  0
   -3.0000    2.5981    0.0000 C   0  0  0  0  0  0  0  0  0  0  0  0
   -1.5000    2.5981    0.0000 N   0  0  0  0  0  0  0  0  0  0  0  0
   -0.7500    3.8971    0.0000 C   0  0  0  0  0  0  0  0  0  0  0  0
    3.0000    5.1962    0.0000 C   0  0  0  0  0  0  0  0  0  0  0  0
   -0.7500    1.2990    0.0000 C   0  0  0  0  0  0  0  0  0  0  0  0
   -1.5000    0.0000    0.0000 C   0  0  0  0  0  0  0  0  0  0  0  0
   -0.7500   -1.2990    0.0000 C   0  0  0  0  0  0  0  0  0  0  0  0
   -3.0000    0.0000    0.0000 C   0  0  0  0  0  0  0  0  0  0  0  0
   -4.5000    0.0000    0.0000 F   0  0  0  0  0  0  0  0  0  0  0  0
   -3.0000    1.5000    0.0000 F   0  0  0  0  0  0  0  0  0  0  0  0
   -3.0000   -1.5000    0.0000 F   0  0  0  0  0  0  0  0  0  0  0  0
  1  2  1  0
  2  3  2  0
  3  4  1  0
  4  5  1  0
  5  6  2  0
  4  7  1  0
  7  8  2  0
  8  9  1  0
  9 10  1  0
 10 11  1  0
 11 12  2  0
 11 13  1  0
 13 14  2  0
 14 15  1  0
 15 16  2  0
 16 17  1  0
 16 18  1  0
 18 19  1  0
 19 20  1  0
 20 21  2  0
 21 22  1  0
 22 23  2  0
 23 24  1  0
 24 25  2  0
 24 26  1  0
 26 27  2  0
 27 28  1  0
 28 29  2  0
 29 30  1  0
 30 31  2  0
 18 32  2  0
  9 33  2  0
 33 34  1  0
 34 35  2  0
 34 36  1  0
 36 37  1  0
 36 38  1  0
 36 39  1  0
  6  2  1  0
 35  7  1  0
 32 13  1  0
 25 20  1  0
 31 26  1  0
M  END
$$$$
139286
     RDKit          2D

 31 33  0  0  0  0  0  0  0  0999 V2000
    3.0000    0.0000    0.0000 C   0  0  0  0  0  0  0  0  0  0  0  0
    1.5000    0.0000    0.0000 C   0  0  0  0  0  0  0  0  0  0  0  0
    0.7500   -1.2990    0.0000 C   0  0  0  0  0  0  0  0  0  0  0  0
   -0.7500   -1.2990    0.0000 N   0  0  0  0  0  0  0  0  0  0  0  0
   -1.5000    0.0000    0.0000 C   0  0  0  0  0  0  0  0  0  0  0  0
   -0.7500    1.2990    0.0000 C   0  0  0  0  0  0  0  0  0  0  0  0
    0.7500    1.2990    0.0000 N   0  0  0  0  0  0  0  0  0  0  0  0
   -3.0000    0.0000    0.0000 C   0  0  0  0  0  0  0  0  0  0  0  0
   -3.7500   -1.2990    0.0000 O   0  0  0  0  0  0  0  0  0  0  0  0
   -3.7500    1.2990    0.0000 N   0  0  0  0  0  0  0  0  0  0  0  0
   -5.2500    1.2990    0.0000 C   0  0  0  0  0  0  0  0  0  0  0  0
   -6.0000    2.5981    0.0000 C   0  0  0  0  0  0  0  0  0  0  0  0
   -7.5000    2.5981    0.0000 C   0  0  0  0  0  0  0  0  0  0  0  0
   -8.2500    3.8971    0.0000 C   0  0  0  0  0  0  0  0  0  0  0  0
   -9.7500    3.8971    0.0000 C   0  0  0  0  0  0  0  0  0  0  0  0
  -10.5000    2.5981    0.0000 C   0  0  0  0  0  0  0  0  0  0  0  0
   -9.7500    1.2990    0.0000 C   0  0  0  0  0  0  0  0  0  0  0  0
   -8.2500    1.2990    0.0000 C   0  0  0  0  0  0  0  0  0  0  0  0
  -12.0000    2.5981    0.0000 S   0  0  0  0  0  0  0  0  0  0  0  0
  -12.0000    4.0981    0.0000 O   0  0  0  0  0  0  0  0  0  0  0  0
  -12.0000    1.0981    0.0000 O   0  0  0  0  0  0  0  0  0  0  0  0
  -13.5000    2.5981    0.0000 N   0  0  0  0  0  0  0  0  0  0  0  0
  -14.2500    1.2990    0.0000 C   0  0  0  0  0  0  0  0  0  0  0  0
  -13.5000    0.0000    0.0000 O   0  0  0  0  0  0  0  0  0  0  0  0
  -15.7500    1.2990    0.0000 N   0  0  0  0  0  0  0  0  0  0  0  0
  -16.5000    0.0000    0.0000 C   0  0  0  0  0  0  0  0  0  0  0  0
  -18.0000   -0.0000    0.0000 C   0  0  0  0  0  0  0  0  0  0  0  0
  -18.7500   -1.2990    0.0000 C   0  0  0  0  0  0  0  0  0  0  0  0
  -18.0000   -2.5981    0.0000 C   0  0  0  0  0  0  0  0  0  0  0  0
  -16.5000   -2.5981    0.0000 C   0  0  0  0  0  0  0  0  0  0  0  0
  -15.7500   -1.2990    0.0000 C   0  0  0  0  0  0  0  0  0  0  0  0
  1  2  1  0
  2  3  2  0
  3  4  1  0
  4  5  2  0
  5  6  1  0
  6  7  2  0
  5  8  1  0
  8  9  2  0
  8 10  1  0
 10 11  1  0
 11 12  1  0
 12 13  1  0
 13 14  2  0
 14 15  1  0
 15 16  2  0
 16 17  1  0
 17 18  2  0
 16 19  1  0
 19 20  2  0
 19 21  2  0
 19 22  1  0
 22 23  1  0
 23 24  2  0
 23 25  1  0
 25 26  1  0
 26 27  1  0
 27 28  1  0
 28 29  1  0
 29 30  1  0
 30 31  1  0
  7  2  1  0
 18 13  1  0
 31 26  1  0
M  END
$$$$
1825632
     RDKit          2D

 55 62  0  0  0  0  0  0  0  0999 V2000
  -15.3220   -3.6361    0.0000 C   0  0  0  0  0  0  0  0  0  0  0  0
  -13.9517   -3.0260    0.0000 C   0  0  0  0  0  0  0  0  0  0  0  0
  -13.7949   -1.5342    0.0000 C   0  0  0  0  0  0  0  0  0  0  0  0
  -12.4246   -0.9241    0.0000 N   0  0  0  0  0  0  0  0  0  0  0  0
  -11.2111   -1.8058    0.0000 C   0  0  0  0  0  0  0  0  0  0  0  0
  -11.3679   -3.2975    0.0000 C   0  0  0  0  0  0  0  0  0  0  0  0
  -12.7382   -3.9076    0.0000 N   0  0  0  0  0  0  0  0  0  0  0  0
   -9.8408   -1.1956    0.0000 C   0  0  0  0  0  0  0  0  0  0  0  0
   -9.6840    0.2961    0.0000 O   0  0  0  0  0  0  0  0  0  0  0  0
   -8.6272   -2.0773    0.0000 N   0  0  0  0  0  0  0  0  0  0  0  0
   -7.2569   -1.4672    0.0000 C   0  0  0  0  0  0  0  0  0  0  0  0
   -7.5688    0.0000    0.0000 C   0  0  0  0  0  0  0  0  0  0  0  0
   -7.2569    1.4672    0.0000 C   0  0  0  0  0  0  0  0  0  0  0  0
   -6.3752    2.6807    0.0000 C   0  0  0  0  0  0  0  0  0  0  0  0
   -5.0762    3.4307    0.0000 C   0  0  0  0  0  0  0  0  0  0  0  0
   -3.5844    3.5875    0.0000 C   0  0  0  0  0  0  0  0  0  0  0  0
   -2.1578    3.1240    0.0000 C   0  0  0  0  0  0  0  0  0  0  0  0
   -1.0431    2.1203    0.0000 C   0  0  0  0  0  0  0  0  0  0  0  0
   -0.4330    0.7500    0.0000 C   0  0  0  0  0  0  0  0  0  0  0  0
    0.8660    0.0000    0.0000 C   0  0  0  0  0  0  0  0  0  0  0  0
   -0.4330   -0.7500    0.0000 C   0  0  0  0  0  0  0  0  0  0  0  0
   -1.0431   -2.1203    0.0000 N   0  0  0  0  0  0  0  0  0  0  0  0
   -2.1578   -3.1240    0.0000 C   0  0  0  0  0  0  0  0  0  0  0  0
   -1.4078   -4.4231    0.0000 O   0  0  0  0  0  0  0  0  0  0  0  0
   -3.5844   -3.5875    0.0000 C   0  0  0  0  0  0  0  0  0  0  0  0
   -3.2726   -5.0548    0.0000 C   0  0  0  0  0  0  0  0  0  0  0  0
   -4.5716   -5.8048    0.0000 C   0  0  0  0  0  0  0  0  0  0  0  0
   -5.6863   -4.8011    0.0000 C   0  0  0  0  0  0  0  0  0  0  0  0
   -5.0762   -3.4307    0.0000 N   0  0  0  0  0  0  0  0  0  0  0  0
   -6.3752   -2.6807    0.0000 C   0  0  0  0  0  0  0  0  0  0  0  0
   -7.3789   -3.7955    0.0000 O   0  0  0  0  0  0  0  0  0  0  0  0
   -4.7284   -7.2965    0.0000 O   0  0  0  0  0  0  0  0  0  0  0  0
   -6.0987   -7.9066    0.0000 C   0  0  0  0  0  0  0  0  0  0  0  0
   -7.3122   -7.0250    0.0000 N   0  0  0  0  0  0  0  0  0  0  0  0
   -8.6825   -7.6351    0.0000 C   0  0  0  0  0  0  0  0  0  0  0  0
   -9.8961   -6.7534    0.0000 C   0  0  0  0  0  0  0  0  0  0  0  0
  -11.2664   -7.3635    0.0000 C   0  0  0  0  0  0  0  0  0  0  0  0
  -11.4232   -8.8553    0.0000 C   0  0  0  0  0  0  0  0  0  0  0  0
  -10.2097   -9.7370    0.0000 C   0  0  0  0  0  0  0  0  0  0  0  0
   -8.8393   -9.1269    0.0000 C   0  0  0  0  0  0  0  0  0  0  0  0
   -7.6258  -10.0085    0.0000 C   0  0  0  0  0  0  0  0  0  0  0  0
   -7.7826  -11.5003    0.0000 C   0  0  0  0  0  0  0  0  0  0  0  0
   -6.5691  -12.3820    0.0000 C   0  0  0  0  0  0  0  0  0  0  0  0
   -5.1988  -11.7719    0.0000 C   0  0  0  0  0  0  0  0  0  0  0  0
   -5.0420  -10.2801    0.0000 C   0  0  0  0  0  0  0  0  0  0  0  0
   -6.2555   -9.3984    0.0000 C   0  0  0  0  0  0  0  0  0  0  0  0
    0.6817   -1.7537    0.0000 C   0  0  0  0  0  0  0  0  0  0  0  0
    0.3698   -3.2209    0.0000 O   0  0  0  0  0  0  0  0  0  0  0  0
    2.1083   -1.2902    0.0000 N   0  0  0  0  0  0  0  0  0  0  0  0
    3.2230   -2.2939    0.0000 S   0  0  0  0  0  0  0  0  0  0  0  0
    2.2193   -3.4086    0.0000 O   0  0  0  0  0  0  0  0  0  0  0  0
    4.2267   -1.1791    0.0000 O   0  0  0  0  0  0  0  0  0  0  0  0
    4.3377   -3.2976    0.0000 C   0  0  0  0  0  0  0  0  0  0  0  0
    5.8049   -3.6094    0.0000 C   0  0  0  0  0  0  0  0  0  0  0  0
    4.8012   -4.7241    0.0000 C   0  0  0  0  0  0  0  0  0  0  0  0
  1  2  1  0
  2  3  2  0
  3  4  1  0
  4  5  2  0
  5  6  1  0
  6  7  2  0
  5  8  1  0
  8  9  2  0
  8 10  1  0
 11 10  1  1
 11 12  1  0
 12 13  1  0
 13 14  1  0
 14 15  1  0
 15 16  1  0
 16 17  1  0
 17 18  2  0
 18 19  1  0
 19 20  1  6
 20 21  1  0
 21 22  1  0
 22 23  1  0
 23 24  2  0
 23 25  1  0
 25 26  1  6
 26 27  1  0
 27 28  1  0
 28 29  1  0
 29 30  1  0
 30 31  2  0
 27 32  1  1
 32 33  1  0
 33 34  2  0
 34 35  1  0
 35 36  2  0
 36 37  1  0
 37 38  2  0
 38 39  1  0
 39 40  2  0
 40 41  1  0
 41 42  2  0
 42 43  1  0
 43 44  2  0
 44 45  1  0
 45 46  2  0
 21 47  1  6
 47 48  2  0
 47 49  1  0
 49 50  1  0
 50 51  2  0
 50 52  2  0
 50 53  1  0
 53 54  1  0
 54 55  1  0
  7  2  1  0
 30 11  1  0
 21 19  1  0
 29 25  1  0
 46 33  1  0
 40 35  1  0
 46 41  1  0
 55 53  1  0
M  END
$$$$
146
     RDKit          2D

 26 29  0  0  0  0  0  0  0  0999 V2000
    3.0000    0.0000    0.0000 C   0  0  0  0  0  0  0  0  0  0  0  0
    1.5000    0.0000    0.0000 C   0  0  0  0  0  0  0  0  0  0  0  0
    0.7500   -1.2990    0.0000 C   0  0  0  0  0  0  0  0  0  0  0  0
   -0.7500   -1.2990    0.0000 O   0  0  0  0  0  0  0  0  0  0  0  0
   -1.5000    0.0000    0.0000 C   0  0  0  0  0  0  0  0  0  0  0  0
   -3.0000    0.0000    0.0000 C   0  0  0  0  0  0  0  0  0  0  0  0
   -3.7500   -1.2990    0.0000 N   0  0  0  0  0  0  0  0  0  0  0  0
   -5.2500   -1.2990    0.0000 C   0  0  0  0  0  0  0  0  0  0  0  0
   -6.0000   -2.5981    0.0000 C   0  0  0  0  0  0  0  0  0  0  0  0
   -5.2500   -3.8971    0.0000 N   0  0  0  0  0  0  0  0  0  0  0  0
   -6.0000   -5.1962    0.0000 C   0  0  0  0  0  0  0  0  0  0  0  0
   -3.7500   -3.8971    0.0000 C   0  0  0  0  0  0  0  0  0  0  0  0
   -3.0000   -2.5981    0.0000 C   0  0  0  0  0  0  0  0  0  0  0  0
   -3.7500    1.2990    0.0000 C   0  0  0  0  0  0  0  0  0  0  0  0
   -5.2500    1.2990    0.0000 F   0  0  0  0  0  0  0  0  0  0  0  0
   -3.0000    2.5981    0.0000 C   0  0  0  0  0  0  0  0  0  0  0  0
   -1.5000    2.5981    0.0000 C   0  0  0  0  0  0  0  0  0  0  0  0
   -0.7500    3.8971    0.0000 C   0  0  0  0  0  0  0  0  0  0  0  0
   -1.5000    5.1962    0.0000 O   0  0  0  0  0  0  0  0  0  0  0  0
    0.7500    3.8971    0.0000 C   0  0  0  0  0  0  0  0  0  0  0  0
    1.5000    2.5981    0.0000 C   0  0  0  0  0  0  0  0  0  0  0  0
    0.7500    1.2990    0.0000 N   0  0  0  0  0  0  0  0  0  0  0  0
   -0.7500    1.2990    0.0000 C   0  0  0  0  0  0  0  0  0  0  0  0
    1.5000    5.1962    0.0000 C   0  0  0  0  0  0  0  0  0  0  0  0
    0.7500    6.4952    0.0000 O   0  0  0  0  0  0  0  0  0  0  0  0
    3.0000    5.1962    0.0000 O   0  0  0  0  0  0  0  0  0  0  0  0
  1  2  1  0
  2  3  1  0
  3  4  1  0
  4  5  1  0
  5  6  1  0
  6  7  1  0
  7  8  1  0
  8  9  1  0
  9 10  1  0
 10 11  1  0
 10 12  1  0
 12 13  1  0
  6 14  2  0
 14 15  1  0
 14 16  1  0
 16 17  2  0
 17 18  1  0
 18 19  2  0
 18 20  1  0
 20 21  2  0
 21 22  1  0
 22 23  1  0
 20 24  1  0
 24 25  2  0
 24 26  1  0
 22  2  1  0
 23  5  2  0
 13  7  1  0
 23 17  1  0
M  END
$$$$
361469
     RDKit          2D

 33 36  0  0  0  0  0  0  0  0999 V2000
    3.0000    0.0000    0.0000 C   0  0  0  0  0  0  0  0  0  0  0  0
    1.5000    0.0000    0.0000 C   0  0  0  0  0  0  0  0  0  0  0  0
    0.7500   -1.2990    0.0000 N   0  0  0  0  0  0  0  0  0  0  0  0
   -0.7500   -1.2990    0.0000 C   0  0  0  0  0  0  0  0  0  0  0  0
   -1.5000   -2.5981    0.0000 N   0  0  0  0  0  0  0  0  0  0  0  0
   -3.0000   -2.5981    0.0000 C   0  0  0  0  0  0  0  0  0  0  0  0
   -3.8817   -3.8116    0.0000 N   0  0  0  0  0  0  0  0  0  0  0  0
   -5.3083   -3.3481    0.0000 C   0  0  0  0  0  0  0  0  0  0  0  0
   -5.3083   -1.8481    0.0000 C   0  0  0  0  0  0  0  0  0  0  0  0
   -3.8817   -1.3846    0.0000 S   0  0  0  0  0  0  0  0  0  0  0  0
   -6.5218   -0.9664    0.0000 C   0  0  0  0  0  0  0  0  0  0  0  0
   -7.8921   -1.5765    0.0000 O   0  0  0  0  0  0  0  0  0  0  0  0
   -6.3650    0.5254    0.0000 N   0  0  0  0  0  0  0  0  0  0  0  0
   -7.5785    1.4071    0.0000 C   0  0  0  0  0  0  0  0  0  0  0  0
   -7.4217    2.8988    0.0000 C   0  0  0  0  0  0  0  0  0  0  0  0
   -6.0514    3.5090    0.0000 C   0  0  0  0  0  0  0  0  0  0  0  0
   -8.6353    3.7805    0.0000 C   0  0  0  0  0  0  0  0  0  0  0  0
  -10.0056    3.1704    0.0000 C   0  0  0  0  0  0  0  0  0  0  0  0
  -10.1624    1.6786    0.0000 C   0  0  0  0  0  0  0  0  0  0  0  0
   -8.9488    0.7970    0.0000 C   0  0  0  0  0  0  0  0  0  0  0  0
   -9.1056   -0.6948    0.0000 Cl  0  0  0  0  0  0  0  0  0  0  0  0
   -1.5000    0.0000    0.0000 C   0  0  0  0  0  0  0  0  0  0  0  0
   -0.7500    1.2990    0.0000 C   0  0  0  0  0  0  0  0  0  0  0  0
    0.7500    1.2990    0.0000 N   0  0  0  0  0  0  0  0  0  0  0  0
   -1.5000    2.5981    0.0000 N   0  0  0  0  0  0  0  0  0  0  0  0
   -0.7500    3.8971    0.0000 C   0  0  0  0  0  0  0  0  0  0  0  0
   -1.5000    5.1962    0.0000 C   0  0  0  0  0  0  0  0  0  0  0  0
   -3.0000    5.1962    0.0000 N   0  0  0  0  0  0  0  0  0  0  0  0
   -3.7500    6.4952    0.0000 C   0  0  0  0  0  0  0  0  0  0  0  0
   -3.0000    7.7942    0.0000 C   0  0  0  0  0  0  0  0  0  0  0  0
   -3.7500    9.0933    0.0000 O   0  0  0  0  0  0  0  0  0  0  0  0
   -3.7500    3.8971    0.0000 C   0  0  0  0  0  0  0  0  0  0  0  0
   -3.0000    2.5981    0.0000 C   0  0  0  0  0  0  0  0  0  0  0  0
  1  2  1  0
  2  3  2  0
  3  4  1  0
  4  5  1  0
  5  6  1  0
  6  7  2  0
  7  8  1  0
  8  9  2  0
  9 10  1  0
  9 11  1  0
 11 12  2  0
 11 13  1  0
 13 14  1  0
 14 15  2  0
 15 16  1  0
 15 17  1  0
 17 18  2  0
 18 19  1  0
 19 20  2  0
 20 21  1  0
  4 22  2  0
 22 23  1  0
 23 24  2  0
 23 25  1  0
 25 26  1  0
 26 27  1  0
 27 28  1  0
 28 29  1  0
 29 30  1  0
 30 31  1  0
 28 32  1  0
 32 33  1  0
 24  2  1  0
 10  6  1  0
 20 14  1  0
 33 25  1  0
M  END
$$$$
73548
     RDKit          2D

 24 26  0  0  0  0  0  0  0  0999 V2000
    1.5000   -5.1962    0.0000 C   0  0  0  0  0  0  0  0  0  0  0  0
    0.7500   -3.8971    0.0000 C   0  0  0  0  0  0  0  0  0  0  0  0
    1.5000   -2.5981    0.0000 N   0  0  0  0  0  0  0  0  0  0  0  0
    0.7500   -1.2990    0.0000 C   0  0  0  0  0  0  0  0  0  0  0  0
    1.5000    0.0000    0.0000 C   0  0  0  0  0  0  0  0  0  0  0  0
    0.7500    1.2990    0.0000 C   0  0  0  0  0  0  0  0  0  0  0  0
    1.5000    2.5981    0.0000 Cl  0  0  0  0  0  0  0  0  0  0  0  0
   -0.7500    1.2990    0.0000 C   0  0  0  0  0  0  0  0  0  0  0  0
   -1.5000    0.0000    0.0000 C   0  0  0  0  0  0  0  0  0  0  0  0
   -0.7500   -1.2990    0.0000 C   0  0  0  0  0  0  0  0  0  0  0  0
   -1.5000   -2.5981    0.0000 C   0  0  0  0  0  0  0  0  0  0  0  0
   -3.0000   -2.5981    0.0000 O   0  0  0  0  0  0  0  0  0  0  0  0
   -0.7500   -3.8971    0.0000 N   0  0  0  0  0  0  0  0  0  0  0  0
   -1.5000   -5.1962    0.0000 C   0  0  0  0  0  0  0  0  0  0  0  0
   -3.0000   -5.1962    0.0000 C   0  0  0  0  0  0  0  0  0  0  0  0
   -3.7500   -6.4952    0.0000 C   0  0  0  0  0  0  0  0  0  0  0  0
   -3.0000   -7.7942    0.0000 C   0  0  0  0  0  0  0  0  0  0  0  0
   -1.5000   -7.7942    0.0000 C   0  0  0  0  0  0  0  0  0  0  0  0
   -0.7500   -6.4952    0.0000 C   0  0  0  0  0  0  0  0  0  0  0  0
    0.7500   -6.4952    0.0000 C   0  0  0  0  0  0  0  0  0  0  0  0
   -1.5000    2.5981    0.0000 S   0  0  0  0  0  0  0  0  0  0  0  0
   -0.2010    3.3481    0.0000 O   0  0  0  0  0  0  0  0  0  0  0  0
   -2.7990    1.8481    0.0000 O   0  0  0  0  0  0  0  0  0  0  0  0
   -2.2500    3.8971    0.0000 N   0  0  0  0  0  0  0  0  0  0  0  0
  1  2  1  0
  2  3  1  0
  3  4  1  0
  4  5  2  0
  5  6  1  0
  6  7  1  0
  6  8  2  0
  8  9  1  0
  9 10  2  0
 10 11  1  0
 11 12  2  0
 11 13  1  0
 13 14  1  0
 14 15  2  0
 15 16  1  0
 16 17  2  0
 17 18  1  0
 18 19  2  0
 19 20  1  0
  8 21  1  0
 21 22  2  0
 21 23  2  0
 21 24  1  0
 13  2  1  0
 10  4  1  0
 19 14  1  0
M  END
$$$$
308201
     RDKit          2D

 12 12  0  0  0  0  0  0  0  0999 V2000
    3.0000    0.0000    0.0000 C   0  0  0  0  0  0  0  0  0  0  0  0
    1.5000    0.0000    0.0000 C   0  0  0  0  0  0  0  0  0  0  0  0
    0.7500   -1.2990    0.0000 N   0  0  0  0  0  0  0  0  0  0  0  0
   -0.7500   -1.2990    0.0000 C   0  0  0  0  0  0  0  0  0  0  0  0
   -1.5000    0.0000    0.0000 C   0  0  0  0  0  0  0  0  0  0  0  0
   -3.0000    0.0000    0.0000 C   0  0  0  0  0  0  0  0  0  0  0  0
   -3.7500    1.2990    0.0000 O   0  0  0  0  0  0  0  0  0  0  0  0
   -0.7500    1.2990    0.0000 C   0  0  0  0  0  0  0  0  0  0  0  0
   -1.5000    2.5981    0.0000 C   0  0  0  0  0  0  0  0  0  0  0  0
   -0.7500    3.8971    0.0000 O   0  0  0  0  0  0  0  0  0  0  0  0
    0.7500    1.2990    0.0000 C   0  0  0  0  0  0  0  0  0  0  0  0
    1.5000    2.5981    0.0000 O   0  0  0  0  0  0  0  0  0  0  0  0
  1  2  1  0
  2  3  2  0
  3  4  1  0
  4  5  2  0
  5  6  1  0
  6  7  1  0
  5  8  1  0
  8  9  1  0
  9 10  1  0
  8 11  2  0
 11 12  1  0
 11  2  1  0
M  END
$$$$
27912
     RDKit          2D

 12 12  0  0  0  0  0  0  0  0999 V2000
    2.7760    0.0000    0.0000 C   0  0  0  0  0  0  0  0  0  0  0  0
    1.2760    0.0000    0.0000 C   0  0  0  0  0  0  0  0  0  0  0  0
    0.3943    1.2135    0.0000 N   0  0  0  0  0  0  0  0  0  0  0  0
   -1.0323    0.7500    0.0000 C   0  0  0  0  0  0  0  0  0  0  0  0
   -1.0323   -0.7500    0.0000 C   0  0  0  0  0  0  0  0  0  0  0  0
   -2.2458   -1.6317    0.0000 N   0  0  0  0  0  4  0  0  0  0  0  0
   -2.0890   -3.1235    0.0000 O   0  0  0  0  0  0  0  0  0  0  0  0
   -3.6161   -1.0216    0.0000 O   0  0  0  0  0  1  0  0  0  0  0  0
    0.3943   -1.2135    0.0000 N   0  0  0  0  0  0  0  0  0  0  0  0
    0.8578   -2.6401    0.0000 C   0  0  0  0  0  0  0  0  0  0  0  0
   -0.1459   -3.7548    0.0000 C   0  0  0  0  0  0  0  0  0  0  0  0
    0.3177   -5.1814    0.0000 O   0  0  0  0  0  0  0  0  0  0  0  0
  1  2  1  0
  2  3  2  0
  3  4  1  0
  4  5  2  0
  5  6  1  0
  6  7  2  0
  6  8  1  0
  5  9  1  0
  9 10  1  0
 10 11  1  0
 11 12  1  0
  9  2  1  0
M  CHG  2   6   1   8  -1
M  END
$$$$
27611
     RDKit          2D

 23 26  0  0  0  0  0  0  0  0999 V2000
   -3.9485   -1.0497    0.0000 C   0  0  0  0  0  0  0  0  0  0  0  0
   -3.1792   -2.3373    0.0000 C   0  0  0  0  0  0  0  0  0  0  0  0
   -3.7687   -3.7166    0.0000 N   0  0  0  0  0  0  0  0  0  0  0  0
   -2.6391   -4.7035    0.0000 C   0  0  0  0  0  0  0  0  0  0  0  0
   -1.3515   -3.9342    0.0000 C   0  0  0  0  0  0  0  0  0  0  0  0
   -0.0000   -4.5850    0.0000 C   0  0  0  0  0  0  0  0  0  0  0  0
    1.3515   -3.9342    0.0000 N   0  0  0  0  0  0  0  0  0  0  0  0
    1.6852   -2.4718    0.0000 C   0  0  0  0  0  0  0  0  0  0  0  0
    3.1476   -2.1380    0.0000 C   0  0  0  0  0  0  0  0  0  0  0  0
    4.1679   -3.2376    0.0000 C   0  0  0  0  0  0  0  0  0  0  0  0
    5.6303   -2.9038    0.0000 C   0  0  0  0  0  0  0  0  0  0  0  0
    6.0724   -1.4704    0.0000 C   0  0  0  0  0  0  0  0  0  0  0  0
    5.0522   -0.3709    0.0000 C   0  0  0  0  0  0  0  0  0  0  0  0
    3.5898   -0.7046    0.0000 C   0  0  0  0  0  0  0  0  0  0  0  0
    2.5695    0.3949    0.0000 F   0  0  0  0  0  0  0  0  0  0  0  0
    0.7500   -1.2990    0.0000 C   0  0  0  0  0  0  0  0  0  0  0  0
    1.5000    0.0000    0.0000 C   0  0  0  0  0  0  0  0  0  0  0  0
    0.7500    1.2990    0.0000 C   0  0  0  0  0  0  0  0  0  0  0  0
    1.5000    2.5981    0.0000 Cl  0  0  0  0  0  0  0  0  0  0  0  0
   -0.7500    1.2990    0.0000 C   0  0  0  0  0  0  0  0  0  0  0  0
   -1.5000    0.0000    0.0000 C   0  0  0  0  0  0  0  0  0  0  0  0
   -0.7500   -1.2990    0.0000 C   0  0  0  0  0  0  0  0  0  0  0  0
   -1.6852   -2.4718    0.0000 N   0  0  0  0  0  0  0  0  0  0  0  0
  1  2  1  0
  2  3  2  0
  3  4  1  0
  4  5  2  0
  5  6  1  0
  6  7  1  0
  7  8  2  0
  8  9  1  0
  9 10  2  0
 10 11  1  0
 11 12  2  0
 12 13  1  0
 13 14  2  0
 14 15  1  0
  8 16  1  0
 16 17  2  0
 17 18  1  0
 18 19  1  0
 18 20  2  0
 20 21  1  0
 21 22  2  0
 22 23  1  0
 23  2  1  0
 23  5  1  0
 14  9  1  0
 22 16  1  0
M  END
$$$$
3183
     RDKit          2D

 22 25  0  0  0  0  0  0  0  0999 V2000
    1.6858   -7.6212    0.0000 C   0  0  0  0  0  0  0  0  0  0  0  0
    3.1530   -7.9331    0.0000 C   0  0  0  0  0  0  0  0  0  0  0  0
    3.7631   -9.3034    0.0000 N   0  0  0  0  0  0  0  0  0  0  0  0
    5.2549   -9.1466    0.0000 C   0  0  0  0  0  0  0  0  0  0  0  0
    5.5668   -7.6794    0.0000 C   0  0  0  0  0  0  0  0  0  0  0  0
    4.2677   -6.9294    0.0000 N   0  0  0  0  0  0  0  0  0  0  0  0
    4.1110   -5.4376    0.0000 C   0  0  0  0  0  0  0  0  0  0  0  0
    2.7406   -4.8275    0.0000 C   0  0  0  0  0  0  0  0  0  0  0  0
    1.5271   -5.7092    0.0000 C   0  0  0  0  0  0  0  0  0  0  0  0
    0.1568   -5.0991    0.0000 C   0  0  0  0  0  0  0  0  0  0  0  0
    0.0000   -3.6073    0.0000 C   0  0  0  0  0  0  0  0  0  0  0  0
    1.2135   -2.7256    0.0000 C   0  0  0  0  0  0  0  0  0  0  0  0
    2.5838   -3.3357    0.0000 C   0  0  0  0  0  0  0  0  0  0  0  0
    3.7974   -2.4540    0.0000 O   0  0  0  0  0  0  0  0  0  0  0  0
    0.7500   -1.2990    0.0000 C   0  0  0  0  0  0  0  0  0  0  0  0
    1.5000    0.0000    0.0000 C   0  0  0  0  0  0  0  0  0  0  0  0
    0.7500    1.2990    0.0000 C   0  0  0  0  0  0  0  0  0  0  0  0
   -0.7500    1.2990    0.0000 C   0  0  0  0  0  0  0  0  0  0  0  0
   -1.5000    0.0000    0.0000 C   0  0  0  0  0  0  0  0  0  0  0  0
   -0.7500   -1.2990    0.0000 C   0  0  0  0  0  0  0  0  0  0  0  0
   -1.2135   -2.7256    0.0000 N   0  0  0  0  0  0  0  0  0  0  0  0
   -2.6401   -3.1891    0.0000 C   0  0  0  0  0  0  0  0  0  0  0  0
  1  2  1  0
  2  3  2  0
  3  4  1  0
  4  5  2  0
  5  6  1  0
  6  7  1  0
  7  8  1  0
  8  9  1  0
  9 10  1  0
 10 11  1  0
 11 12  2  0
 12 13  1  0
 13 14  2  0
 12 15  1  0
 15 16  2  0
 16 17  1  0
 17 18  2  0
 18 19  1  0
 19 20  2  0
 20 21  1  0
 21 22  1  0
  6  2  1  0
 13  8  1  0
 21 11  1  0
 20 15  1  0
M  END
$$$$
675159
     RDKit          2D

 13 14  0  0  0  0  0  0  0  0999 V2000
    3.0000    0.0000    0.0000 C   0  0  0  0  0  0  0  0  0  0  0  0
    1.5000    0.0000    0.0000 C   0  0  0  0  0  0  0  0  0  0  0  0
    0.7500   -1.2990    0.0000 N   0  0  0  0  0  0  0  0  0  0  0  0
   -0.7500   -1.2990    0.0000 C   0  0  0  0  0  0  0  0  0  0  0  0
   -1.5000    0.0000    0.0000 C   0  0  0  0  0  0  0  0  0  0  0  0
   -0.7500    1.2990    0.0000 O   0  0  0  0  0  0  0  0  0  0  0  0
    0.7500    1.2990    0.0000 C   0  0  0  0  0  0  0  0  0  0  0  0
    1.5000    2.5981    0.0000 C   0  0  0  0  0  0  0  0  0  0  0  0
    3.0000    2.5981    0.0000 C   0  0  0  0  0  0  0  0  0  0  0  0
    3.7500    3.8971    0.0000 C   0  0  0  0  0  0  0  0  0  0  0  0
    3.0000    5.1962    0.0000 C   0  0  0  0  0  0  0  0  0  0  0  0
    1.5000    5.1962    0.0000 C   0  0  0  0  0  0  0  0  0  0  0  0
    0.7500    3.8971    0.0000 C   0  0  0  0  0  0  0  0  0  0  0  0
  1  2  1  0
  2  3  1  0
  3  4  1  0
  4  5  1  0
  5  6  1  0
  6  7  1  0
  7  8  1  0
  8  9  2  0
  9 10  1  0
 10 11  2  0
 11 12  1  0
 12 13  2  0
  7  2  1  0
 13  8  1  0
M  END
$$$$
204115
     RDKit          2D

 17 18  0  0  0  0  0  0  0  0999 V2000
    7.2718   -5.5288    0.0000 C   0  0  0  0  0  0  0  0  0  0  0  0
    6.0583   -4.6471    0.0000 C   0  0  0  0  0  0  0  0  0  0  0  0
    6.0583   -3.1471    0.0000 N   0  0  0  0  0  0  0  0  0  0  0  0
    4.6317   -2.6836    0.0000 N   0  0  0  0  0  0  0  0  0  0  0  0
    3.7500   -3.8971    0.0000 C   0  0  0  0  0  0  0  0  0  0  0  0
    2.2500   -3.8971    0.0000 N   0  0  0  0  0  0  0  0  0  0  0  0
    1.5000   -2.5981    0.0000 S   0  0  0  0  0  0  0  0  0  0  0  0
    0.2010   -3.3481    0.0000 O   0  0  0  0  0  0  0  0  0  0  0  0
    2.7990   -1.8481    0.0000 O   0  0  0  0  0  0  0  0  0  0  0  0
    0.7500   -1.2990    0.0000 C   0  0  0  0  0  0  0  0  0  0  0  0
    1.5000    0.0000    0.0000 C   0  0  0  0  0  0  0  0  0  0  0  0
    0.7500    1.2990    0.0000 C   0  0  0  0  0  0  0  0  0  0  0  0
   -0.7500    1.2990    0.0000 C   0  0  0  0  0  0  0  0  0  0  0  0
   -1.5000    2.5981    0.0000 N   0  0  0  0  0  0  0  0  0  0  0  0
   -1.5000    0.0000    0.0000 C   0  0  0  0  0  0  0  0  0  0  0  0
   -0.7500   -1.2990    0.0000 C   0  0  0  0  0  0  0  0  0  0  0  0
    4.6317   -5.1106    0.0000 S   0  0  0  0  0  0  0  0  0  0  0  0
  1  2  1  0
  2  3  2  0
  3  4  1  0
  4  5  2  0
  5  6  1  0
  6  7  1  0
  7  8  2  0
  7  9  2  0
  7 10  1  0
 10 11  2  0
 11 12  1  0
 12 13  2  0
 13 14  1  0
 13 15  1  0
 15 16  2  0
  5 17  1  0
 17  2  1  0
 16 10  1  0
M  END
$$$$
27648
     RDKit          2D

 22 25  0  0  0  0  0  0  0  0999 V2000
   -3.9485   -1.0497    0.0000 C   0  0  0  0  0  0  0  0  0  0  0  0
   -3.1792   -2.3373    0.0000 C   0  0  0  0  0  0  0  0  0  0  0  0
   -3.7687   -3.7166    0.0000 N   0  0  0  0  0  0  0  0  0  0  0  0
   -2.6391   -4.7035    0.0000 N   0  0  0  0  0  0  0  0  0  0  0  0
   -1.3515   -3.9342    0.0000 C   0  0  0  0  0  0  0  0  0  0  0  0
   -0.0000   -4.5850    0.0000 C   0  0  0  0  0  0  0  0  0  0  0  0
    1.3515   -3.9342    0.0000 N   0  0  0  0  0  0  0  0  0  0  0  0
    1.6852   -2.4718    0.0000 C   0  0  0  0  0  0  0  0  0  0  0  0
    3.1476   -2.1380    0.0000 C   0  0  0  0  0  0  0  0  0  0  0  0
    4.1679   -3.2376    0.0000 C   0  0  0  0  0  0  0  0  0  0  0  0
    5.6303   -2.9038    0.0000 C   0  0  0  0  0  0  0  0  0  0  0  0
    6.0724   -1.4704    0.0000 C   0  0  0  0  0  0  0  0  0  0  0  0
    5.0522   -0.3709    0.0000 C   0  0  0  0  0  0  0  0  0  0  0  0
    3.5898   -0.7046    0.0000 C   0  0  0  0  0  0  0  0  0  0  0  0
    0.7500   -1.2990    0.0000 C   0  0  0  0  0  0  0  0  0  0  0  0
    1.5000    0.0000    0.0000 C   0  0  0  0  0  0  0  0  0  0  0  0
    0.7500    1.2990    0.0000 C   0  0  0  0  0  0  0  0  0  0  0  0
    1.5000    2.5981    0.0000 Cl  0  0  0  0  0  0  0  0  0  0  0  0
   -0.7500    1.2990    0.0000 C   0  0  0  0  0  0  0  0  0  0  0  0
   -1.5000    0.0000    0.0000 C   0  0  0  0  0  0  0  0  0  0  0  0
   -0.7500   -1.2990    0.0000 C   0  0  0  0  0  0  0  0  0  0  0  0
   -1.6852   -2.4718    0.0000 N   0  0  0  0  0  0  0  0  0  0  0  0
  1  2  1  0
  2  3  2  0
  3  4  1  0
  4  5  2  0
  5  6  1  0
  6  7  1  0
  7  8  2  0
  8  9  1  0
  9 10  2  0
 10 11  1  0
 11 12  2  0
 12 13  1  0
 13 14  2  0
  8 15  1  0
 15 16  2  0
 16 17  1  0
 17 18  1  0
 17 19  2  0
 19 20  1  0
 20 21  2  0
 21 22  1  0
 22  2  1  0
 22  5  1  0
 14  9  1  0
 21 15  1  0
M  END
$$$$
27419
     RDKit          2D

 23 26  0  0  0  0  0  0  0  0999 V2000
   -3.9485   -1.0497    0.0000 C   0  0  0  0  0  0  0  0  0  0  0  0
   -3.1792   -2.3373    0.0000 C   0  0  0  0  0  0  0  0  0  0  0  0
   -3.7687   -3.7166    0.0000 N   0  0  0  0  0  0  0  0  0  0  0  0
   -2.6391   -4.7035    0.0000 N   0  0  0  0  0  0  0  0  0  0  0  0
   -1.3515   -3.9342    0.0000 C   0  0  0  0  0  0  0  0  0  0  0  0
   -0.0000   -4.5850    0.0000 C   0  0  0  0  0  0  0  0  0  0  0  0
    1.3515   -3.9342    0.0000 N   0  0  0  0  0  0  0  0  0  0  0  0
    1.6852   -2.4718    0.0000 C   0  0  0  0  0  0  0  0  0  0  0  0
    3.1476   -2.1380    0.0000 C   0  0  0  0  0  0  0  0  0  0  0  0
    4.1679   -3.2376    0.0000 C   0  0  0  0  0  0  0  0  0  0  0  0
    5.6303   -2.9038    0.0000 C   0  0  0  0  0  0  0  0  0  0  0  0
    6.0724   -1.4704    0.0000 C   0  0  0  0  0  0  0  0  0  0  0  0
    5.0522   -0.3709    0.0000 C   0  0  0  0  0  0  0  0  0  0  0  0
    3.5898   -0.7046    0.0000 C   0  0  0  0  0  0  0  0  0  0  0  0
    2.5695    0.3949    0.0000 Cl  0  0  0  0  0  0  0  0  0  0  0  0
    0.7500   -1.2990    0.0000 C   0  0  0  0  0  0  0  0  0  0  0  0
    1.5000    0.0000    0.0000 C   0  0  0  0  0  0  0  0  0  0  0  0
    0.7500    1.2990    0.0000 C   0  0  0  0  0  0  0  0  0  0  0  0
    1.5000    2.5981    0.0000 Cl  0  0  0  0  0  0  0  0  0  0  0  0
   -0.7500    1.2990    0.0000 C   0  0  0  0  0  0  0  0  0  0  0  0
   -1.5000    0.0000    0.0000 C   0  0  0  0  0  0  0  0  0  0  0  0
   -0.7500   -1.2990    0.0000 C   0  0  0  0  0  0  0  0  0  0  0  0
   -1.6852   -2.4718    0.0000 N   0  0  0  0  0  0  0  0  0  0  0  0
  1  2  1  0
  2  3  2  0
  3  4  1  0
  4  5  2  0
  5  6  1  0
  6  7  1  0
  7  8  2  0
  8  9  1  0
  9 10  2  0
 10 11  1  0
 11 12  2  0
 12 13  1  0
 13 14  2  0
 14 15  1  0
  8 16  1  0
 16 17  2  0
 17 18  1  0
 18 19  1  0
 18 20  2  0
 20 21  1  0
 21 22  2  0
 22 23  1  0
 23  2  1  0
 23  5  1  0
 14  9  1  0
 22 16  1  0
M  END
$$$$
2484
     RDKit          2D

 18 19  0  0  0  0  0  0  0  0999 V2000
    7.2718   -5.5288    0.0000 C   0  0  0  0  0  0  0  0  0  0  0  0
    6.0583   -4.6471    0.0000 C   0  0  0  0  0  0  0  0  0  0  0  0
    6.0583   -3.1471    0.0000 N   0  0  0  0  0  0  0  0  0  0  0  0
    4.6317   -2.6836    0.0000 O   0  0  0  0  0  0  0  0  0  0  0  0
    3.7500   -3.8971    0.0000 C   0  0  0  0  0  0  0  0  0  0  0  0
    2.2500   -3.8971    0.0000 N   0  0  0  0  0  0  0  0  0  0  0  0
    1.5000   -2.5981    0.0000 S   0  0  0  0  0  0  0  0  0  0  0  0
    0.2010   -3.3481    0.0000 O   0  0  0  0  0  0  0  0  0  0  0  0
    2.7990   -1.8481    0.0000 O   0  0  0  0  0  0  0  0  0  0  0  0
    0.7500   -1.2990    0.0000 C   0  0  0  0  0  0  0  0  0  0  0  0
    1.5000    0.0000    0.0000 C   0  0  0  0  0  0  0  0  0  0  0  0
    0.7500    1.2990    0.0000 C   0  0  0  0  0  0  0  0  0  0  0  0
   -0.7500    1.2990    0.0000 C   0  0  0  0  0  0  0  0  0  0  0  0
   -1.5000    2.5981    0.0000 N   0  0  0  0  0  0  0  0  0  0  0  0
   -1.5000    0.0000    0.0000 C   0  0  0  0  0  0  0  0  0  0  0  0
   -0.7500   -1.2990    0.0000 C   0  0  0  0  0  0  0  0  0  0  0  0
    4.6317   -5.1106    0.0000 C   0  0  0  0  0  0  0  0  0  0  0  0
    4.1682   -6.5372    0.0000 C   0  0  0  0  0  0  0  0  0  0  0  0
  1  2  1  0
  2  3  2  0
  3  4  1  0
  4  5  1  0
  5  6  1  0
  6  7  1  0
  7  8  2  0
  7  9  2  0
  7 10  1  0
 10 11  2  0
 11 12  1  0
 12 13  2  0
 13 14  1  0
 13 15  1  0
 15 16  2  0
  5 17  2  0
 17 18  1  0
 17  2  1  0
 16 10  1  0
M  END
$$$$
279727
     RDKit          2D

 13 15  0  0  0  0  0  0  0  0999 V2000
   -5.0218   -1.6317    0.0000 C   0  0  0  0  0  0  0  0  0  0  0  0
   -3.8083   -0.7500    0.0000 C   0  0  0  0  0  0  0  0  0  0  0  0
   -2.3817   -1.2135    0.0000 O   0  0  0  0  0  0  0  0  0  0  0  0
   -1.5000    0.0000    0.0000 C   0  0  0  0  0  0  0  0  0  0  0  0
   -2.3817    1.2135    0.0000 C   0  0  0  0  0  0  0  0  0  0  0  0
   -3.8083    0.7500    0.0000 S   0  0  0  0  0  0  0  0  0  0  0  0
   -0.7500   -1.2990    0.0000 C   0  0  0  0  0  0  0  0  0  0  0  0
    0.7500   -1.2990    0.0000 N   0  0  0  0  0  0  0  0  0  0  0  0
    1.5000    0.0000    0.0000 C   0  0  0  0  0  0  0  0  0  0  0  0
    0.7500    1.2990    0.0000 C   0  0  0  0  0  0  0  0  0  0  0  0
   -0.7500    1.2990    0.0000 C   0  0  0  0  0  0  0  0  0  0  0  0
   -0.8000    0.0000    0.0000 C   0  0  0  0  0  0  0  0  0  0  0  0
   -0.4000   -0.6928    0.0000 C   0  0  0  0  0  0  0  0  0  0  0  0
  1  2  1  0
  2  3  1  0
  3  4  1  0
  4  5  1  0
  5  6  1  0
  4  7  1  0
  7  8  1  0
  8  9  1  0
  9 10  1  0
 10 11  1  0
 11 12  1  0
 12 13  1  0
  6  2  1  0
 11  4  1  0
 13  8  1  0
M  END
$$$$
675119
     RDKit          2D

 17 18  0  0  0  0  0  0  0  0999 V2000
    1.8478  -11.6600    0.0000 C   0  0  0  0  0  0  0  0  0  0  0  0
    2.0046  -10.1682    0.0000 C   0  0  0  0  0  0  0  0  0  0  0  0
    3.3037   -9.4182    0.0000 O   0  0  0  0  0  0  0  0  0  0  0  0
    2.9918   -7.9510    0.0000 N   0  0  0  0  0  0  0  0  0  0  0  0
    1.5000   -7.7942    0.0000 C   0  0  0  0  0  0  0  0  0  0  0  0
    0.8899   -9.1645    0.0000 C   0  0  0  0  0  0  0  0  0  0  0  0
    0.7500   -6.4952    0.0000 C   0  0  0  0  0  0  0  0  0  0  0  0
   -0.7500   -6.4952    0.0000 O   0  0  0  0  0  0  0  0  0  0  0  0
    1.5000   -5.1962    0.0000 N   0  0  0  0  0  0  0  0  0  0  0  0
    0.7500   -3.8971    0.0000 N   0  0  0  0  0  0  0  0  0  0  0  0
    1.5000   -2.5981    0.0000 C   0  0  0  0  0  0  0  0  0  0  0  0
    0.7500   -1.2990    0.0000 C   0  0  0  0  0  0  0  0  0  0  0  0
    1.5000    0.0000    0.0000 C   0  0  0  0  0  0  0  0  0  0  0  0
    0.7500    1.2990    0.0000 C   0  0  0  0  0  0  0  0  0  0  0  0
   -0.7500    1.2990    0.0000 C   0  0  0  0  0  0  0  0  0  0  0  0
   -1.5000    0.0000    0.0000 C   0  0  0  0  0  0  0  0  0  0  0  0
   -0.7500   -1.2990    0.0000 C   0  0  0  0  0  0  0  0  0  0  0  0
  1  2  1  0
  2  3  1  0
  3  4  1  0
  4  5  2  0
  5  6  1  0
  5  7  1  0
  7  8  2  0
  7  9  1  0
  9 10  1  0
 10 11  1  0
 11 12  1  0
 12 13  2  0
 13 14  1  0
 14 15  2  0
 15 16  1  0
 16 17  2  0
  6  2  2  0
 17 12  1  0
M  END
$$$$
77085
     RDKit          2D

 30 33  0  0  0  0  0  0  0  0999 V2000
    0.6282    6.9628    0.0000 C   0  0  0  0  0  0  0  0  0  0  0  0
    2.1097    6.7281    0.0000 C   0  0  0  0  0  0  0  0  0  0  0  0
    3.1704    7.7888    0.0000 O   0  0  0  0  0  0  0  0  0  0  0  0
    4.5069    7.1078    0.0000 N   0  0  0  0  0  0  0  0  0  0  0  0
    4.2722    5.6263    0.0000 C   0  0  0  0  0  0  0  0  0  0  0  0
    2.7907    5.3916    0.0000 C   0  0  0  0  0  0  0  0  0  0  0  0
    2.1097    4.0551    0.0000 C   0  0  0  0  0  0  0  0  0  0  0  0
    2.7015    2.8417    0.0000 O   0  0  0  0  0  0  0  0  0  0  0  0
    0.6118    3.9766    0.0000 N   0  0  0  0  0  0  0  0  0  0  0  0
   -0.0692    2.6401    0.0000 C   0  0  0  0  0  0  0  0  0  0  0  0
    0.3943    1.2135    0.0000 C   0  0  0  0  0  0  0  0  0  0  0  0
    1.2760    0.0000    0.0000 S   0  0  0  0  0  0  0  0  0  0  0  0
    0.3943   -1.2135    0.0000 C   0  0  0  0  0  0  0  0  0  0  0  0
    1.6933   -1.9635    0.0000 C   0  0  0  0  0  0  0  0  0  0  0  0
   -0.2158   -2.5838    0.0000 C   0  0  0  0  0  0  0  0  0  0  0  0
   -1.0323   -0.7500    0.0000 C   0  0  0  0  0  0  0  0  0  0  0  0
   -1.0323    0.7500    0.0000 N   0  0  0  0  0  0  0  0  0  0  0  0
   -1.4958    2.1766    0.0000 C   0  0  0  0  0  0  0  0  0  0  0  0
   -2.8323    2.8576    0.0000 O   0  0  0  0  0  0  0  0  0  0  0  0
   -2.2458   -1.6317    0.0000 C   0  0  0  0  0  0  0  0  0  0  0  0
   -2.0890   -3.1235    0.0000 O   0  0  0  0  0  0  0  0  0  0  0  0
   -3.6161   -1.0216    0.0000 O   0  0  0  0  0  0  0  0  0  0  0  0
    5.3329    4.5656    0.0000 C   0  0  0  0  0  0  0  0  0  0  0  0
    4.9447    3.1167    0.0000 C   0  0  0  0  0  0  0  0  0  0  0  0
    3.6930    2.6110    0.0000 Cl  0  0  0  0  0  0  0  0  0  0  0  0
    6.0053    2.0561    0.0000 C   0  0  0  0  0  0  0  0  0  0  0  0
    7.4542    2.4443    0.0000 C   0  0  0  0  0  0  0  0  0  0  0  0
    7.8424    3.8932    0.0000 C   0  0  0  0  0  0  0  0  0  0  0  0
    6.7818    4.9539    0.0000 C   0  0  0  0  0  0  0  0  0  0  0  0
    7.1700    6.4027    0.0000 Cl  0  0  0  0  0  0  0  0  0  0  0  0
  1  2  1  0
  2  3  1  0
  3  4  1  0
  4  5  2  0
  5  6  1  0
  6  7  1  0
  7  8  2  0
  7  9  1  0
 10  9  1  1
 10 11  1  0
 11 12  1  1
 12 13  1  0
 13 14  1  0
 13 15  1  0
 13 16  1  0
 16 17  1  0
 17 18  1  0
 18 19  2  0
 16 20  1  6
 20 21  2  0
 20 22  1  0
  5 23  1  0
 23 24  2  0
 24 25  1  0
 24 26  1  0
 26 27  2  0
 27 28  1  0
 28 29  2  0
 29 30  1  0
  6  2  2  0
 18 10  1  0
 17 11  1  0
 29 23  1  0
M  END
$$$$
56432
     RDKit          2D

 28 31  0  0  0  0  0  0  0  0999 V2000
    5.3329    4.5656    0.0000 C   0  0  0  0  0  0  0  0  0  0  0  0
    4.2722    5.6263    0.0000 C   0  0  0  0  0  0  0  0  0  0  0  0
    4.5069    7.1078    0.0000 O   0  0  0  0  0  0  0  0  0  0  0  0
    3.1704    7.7888    0.0000 N   0  0  0  0  0  0  0  0  0  0  0  0
    2.1097    6.7281    0.0000 C   0  0  0  0  0  0  0  0  0  0  0  0
    0.6282    6.9628    0.0000 C   0  0  0  0  0  0  0  0  0  0  0  0
    0.0906    8.3632    0.0000 C   0  0  0  0  0  0  0  0  0  0  0  0
   -1.3909    8.5978    0.0000 C   0  0  0  0  0  0  0  0  0  0  0  0
   -2.3349    7.4321    0.0000 C   0  0  0  0  0  0  0  0  0  0  0  0
   -1.7973    6.0317    0.0000 C   0  0  0  0  0  0  0  0  0  0  0  0
   -0.3158    5.7971    0.0000 C   0  0  0  0  0  0  0  0  0  0  0  0
    2.7907    5.3916    0.0000 C   0  0  0  0  0  0  0  0  0  0  0  0
    2.1097    4.0551    0.0000 C   0  0  0  0  0  0  0  0  0  0  0  0
    2.9267    2.7971    0.0000 O   0  0  0  0  0  0  0  0  0  0  0  0
    0.6118    3.9766    0.0000 N   0  0  0  0  0  0  0  0  0  0  0  0
   -0.0692    2.6401    0.0000 C   0  0  0  0  0  0  0  0  0  0  0  0
    0.3943    1.2135    0.0000 C   0  0  0  0  0  0  0  0  0  0  0  0
    1.2760    0.0000    0.0000 S   0  0  0  0  0  0  0  0  0  0  0  0
    0.3943   -1.2135    0.0000 C   0  0  0  0  0  0  0  0  0  0  0  0
    1.6933   -1.9635    0.0000 C   0  0  0  0  0  0  0  0  0  0  0  0
   -0.2158   -2.5838    0.0000 C   0  0  0  0  0  0  0  0  0  0  0  0
   -1.0323   -0.7500    0.0000 C   0  0  0  0  0  0  0  0  0  0  0  0
   -1.0323    0.7500    0.0000 N   0  0  0  0  0  0  0  0  0  0  0  0
   -1.4958    2.1766    0.0000 C   0  0  0  0  0  0  0  0  0  0  0  0
   -2.8323    2.8576    0.0000 O   0  0  0  0  0  0  0  0  0  0  0  0
   -2.2458   -1.6317    0.0000 C   0  0  0  0  0  0  0  0  0  0  0  0
   -2.0890   -3.1235    0.0000 O   0  0  0  0  0  0  0  0  0  0  0  0
   -3.6161   -1.0216    0.0000 O   0  0  0  0  0  0  0  0  0  0  0  0
  1  2  1  0
  2  3  1  0
  3  4  1  0
  4  5  2  0
  5  6  1  0
  6  7  2  0
  7  8  1  0
  8  9  2  0
  9 10  1  0
 10 11  2  0
  5 12  1  0
 12 13  1  0
 13 14  2  0
 13 15  1  0
 16 15  1  1
 16 17  1  0
 17 18  1  1
 18 19  1  0
 19 20  1  0
 19 21  1  0
 19 22  1  0
 22 23  1  0
 23 24  1  0
 24 25  2  0
 22 26  1  6
 26 27  2  0
 26 28  1  0
 12  2  2  0
 11  6  1  0
 24 16  1  0
 23 17  1  0
M  END
$$$$
67010
     RDKit          2D

 22 24  0  0  0  0  0  0  0  0999 V2000
    1.8478   -6.4639    0.0000 C   0  0  0  0  0  0  0  0  0  0  0  0
    2.0046   -4.9721    0.0000 C   0  0  0  0  0  0  0  0  0  0  0  0
    3.3037   -4.2221    0.0000 O   0  0  0  0  0  0  0  0  0  0  0  0
    2.9918   -2.7549    0.0000 N   0  0  0  0  0  0  0  0  0  0  0  0
    1.5000   -2.5981    0.0000 C   0  0  0  0  0  0  0  0  0  0  0  0
    0.7500   -1.2990    0.0000 C   0  0  0  0  0  0  0  0  0  0  0  0
    1.5000    0.0000    0.0000 C   0  0  0  0  0  0  0  0  0  0  0  0
    0.7500    1.2990    0.0000 C   0  0  0  0  0  0  0  0  0  0  0  0
   -0.7500    1.2990    0.0000 C   0  0  0  0  0  0  0  0  0  0  0  0
   -1.5000    0.0000    0.0000 C   0  0  0  0  0  0  0  0  0  0  0  0
   -0.7500   -1.2990    0.0000 C   0  0  0  0  0  0  0  0  0  0  0  0
    0.8899   -3.9684    0.0000 C   0  0  0  0  0  0  0  0  0  0  0  0
   -0.5773   -4.2803    0.0000 C   0  0  0  0  0  0  0  0  0  0  0  0
   -1.5810   -3.1655    0.0000 C   0  0  0  0  0  0  0  0  0  0  0  0
   -3.0482   -3.4774    0.0000 C   0  0  0  0  0  0  0  0  0  0  0  0
   -3.5118   -4.9040    0.0000 C   0  0  0  0  0  0  0  0  0  0  0  0
   -2.5081   -6.0187    0.0000 C   0  0  0  0  0  0  0  0  0  0  0  0
   -1.0409   -5.7068    0.0000 C   0  0  0  0  0  0  0  0  0  0  0  0
   -4.9790   -5.2159    0.0000 S   0  0  0  0  0  0  0  0  0  0  0  0
   -5.2909   -3.7486    0.0000 O   0  0  0  0  0  0  0  0  0  0  0  0
   -4.6671   -6.6831    0.0000 O   0  0  0  0  0  0  0  0  0  0  0  0
   -6.4462   -5.5277    0.0000 N   0  0  0  0  0  0  0  0  0  0  0  0
  1  2  1  0
  2  3  1  0
  3  4  1  0
  4  5  2  0
  5  6  1  0
  6  7  2  0
  7  8  1  0
  8  9  2  0
  9 10  1  0
 10 11  2  0
  5 12  1  0
 12 13  1  0
 13 14  2  0
 14 15  1  0
 15 16  2  0
 16 17  1  0
 17 18  2  0
 16 19  1  0
 19 20  2  0
 19 21  2  0
 19 22  1  0
 12  2  2  0
 11  6  1  0
 18 13  1  0
M  END
$$$$
76766
     RDKit          2D

 29 32  0  0  0  0  0  0  0  0999 V2000
    0.6282    6.9628    0.0000 C   0  0  0  0  0  0  0  0  0  0  0  0
    2.1097    6.7281    0.0000 C   0  0  0  0  0  0  0  0  0  0  0  0
    3.1704    7.7888    0.0000 O   0  0  0  0  0  0  0  0  0  0  0  0
    4.5069    7.1078    0.0000 N   0  0  0  0  0  0  0  0  0  0  0  0
    4.2722    5.6263    0.0000 C   0  0  0  0  0  0  0  0  0  0  0  0
    5.3329    4.5656    0.0000 C   0  0  0  0  0  0  0  0  0  0  0  0
    4.9447    3.1167    0.0000 C   0  0  0  0  0  0  0  0  0  0  0  0
    6.0053    2.0561    0.0000 C   0  0  0  0  0  0  0  0  0  0  0  0
    7.4542    2.4443    0.0000 C   0  0  0  0  0  0  0  0  0  0  0  0
    7.8424    3.8932    0.0000 C   0  0  0  0  0  0  0  0  0  0  0  0
    6.7818    4.9539    0.0000 C   0  0  0  0  0  0  0  0  0  0  0  0
    7.1700    6.4027    0.0000 Cl  0  0  0  0  0  0  0  0  0  0  0  0
    2.7907    5.3916    0.0000 C   0  0  0  0  0  0  0  0  0  0  0  0
    2.1097    4.0551    0.0000 C   0  0  0  0  0  0  0  0  0  0  0  0
    2.9267    2.7971    0.0000 O   0  0  0  0  0  0  0  0  0  0  0  0
    0.6118    3.9766    0.0000 N   0  0  0  0  0  0  0  0  0  0  0  0
   -0.0692    2.6401    0.0000 C   0  0  0  0  0  0  0  0  0  0  0  0
    0.3943    1.2135    0.0000 C   0  0  0  0  0  0  0  0  0  0  0  0
    1.2760    0.0000    0.0000 S   0  0  0  0  0  0  0  0  0  0  0  0
    0.3943   -1.2135    0.0000 C   0  0  0  0  0  0  0  0  0  0  0  0
    1.6933   -1.9635    0.0000 C   0  0  0  0  0  0  0  0  0  0  0  0
   -0.2158   -2.5838    0.0000 C   0  0  0  0  0  0  0  0  0  0  0  0
   -1.0323   -0.7500    0.0000 C   0  0  0  0  0  0  0  0  0  0  0  0
   -1.0323    0.7500    0.0000 N   0  0  0  0  0  0  0  0  0  0  0  0
   -1.4958    2.1766    0.0000 C   0  0  0  0  0  0  0  0  0  0  0  0
   -2.8323    2.8576    0.0000 O   0  0  0  0  0  0  0  0  0  0  0  0
   -2.2458   -1.6317    0.0000 C   0  0  0  0  0  0  0  0  0  0  0  0
   -2.0890   -3.1235    0.0000 O   0  0  0  0  0  0  0  0  0  0  0  0
   -3.6161   -1.0216    0.0000 O   0  0  0  0  0  0  0  0  0  0  0  0
  1  2  1  0
  2  3  1  0
  3  4  1  0
  4  5  2  0
  5  6  1  0
  6  7  2  0
  7  8  1  0
  8  9  2  0
  9 10  1  0
 10 11  2  0
 11 12  1  0
  5 13  1  0
 13 14  1  0
 14 15  2  0
 14 16  1  0
 17 16  1  1
 17 18  1  0
 18 19  1  1
 19 20  1  0
 20 21  1  0
 20 22  1  0
 20 23  1  0
 23 24  1  0
 24 25  1  0
 25 26  2  0
 23 27  1  6
 27 28  2  0
 27 29  1  0
 13  2  2  0
 11  6  1  0
 25 17  1  0
 24 18  1  0
M  END
$$$$
2247
     RDKit          2D

 17 18  0  0  0  0  0  0  0  0999 V2000
    7.2718   -5.5288    0.0000 C   0  0  0  0  0  0  0  0  0  0  0  0
    6.0583   -4.6471    0.0000 C   0  0  0  0  0  0  0  0  0  0  0  0
    6.0583   -3.1471    0.0000 O   0  0  0  0  0  0  0  0  0  0  0  0
    4.6317   -2.6836    0.0000 N   0  0  0  0  0  0  0  0  0  0  0  0
    3.7500   -3.8971    0.0000 C   0  0  0  0  0  0  0  0  0  0  0  0
    2.2500   -3.8971    0.0000 N   0  0  0  0  0  0  0  0  0  0  0  0
    1.5000   -2.5981    0.0000 S   0  0  0  0  0  0  0  0  0  0  0  0
    0.2010   -3.3481    0.0000 O   0  0  0  0  0  0  0  0  0  0  0  0
    2.7990   -1.8481    0.0000 O   0  0  0  0  0  0  0  0  0  0  0  0
    0.7500   -1.2990    0.0000 C   0  0  0  0  0  0  0  0  0  0  0  0
    1.5000    0.0000    0.0000 C   0  0  0  0  0  0  0  0  0  0  0  0
    0.7500    1.2990    0.0000 C   0  0  0  0  0  0  0  0  0  0  0  0
   -0.7500    1.2990    0.0000 C   0  0  0  0  0  0  0  0  0  0  0  0
   -1.5000    2.5981    0.0000 N   0  0  0  0  0  0  0  0  0  0  0  0
   -1.5000    0.0000    0.0000 C   0  0  0  0  0  0  0  0  0  0  0  0
   -0.7500   -1.2990    0.0000 C   0  0  0  0  0  0  0  0  0  0  0  0
    4.6317   -5.1106    0.0000 C   0  0  0  0  0  0  0  0  0  0  0  0
  1  2  1  0
  2  3  1  0
  3  4  1  0
  4  5  2  0
  5  6  1  0
  6  7  1  0
  7  8  2  0
  7  9  2  0
  7 10  1  0
 10 11  2  0
 11 12  1  0
 12 13  2  0
 13 14  1  0
 13 15  1  0
 15 16  2  0
  5 17  1  0
 17  2  2  0
 16 10  1  0
M  END
$$$$
93895
     RDKit          2D

 19 20  0  0  0  0  0  0  0  0999 V2000
   -0.5773   -6.8783    0.0000 C   0  0  0  0  0  0  0  0  0  0  0  0
    0.8899   -6.5665    0.0000 C   0  0  0  0  0  0  0  0  0  0  0  0
    2.0046   -7.5702    0.0000 O   0  0  0  0  0  0  0  0  0  0  0  0
    3.3037   -6.8202    0.0000 N   0  0  0  0  0  0  0  0  0  0  0  0
    2.9918   -5.3529    0.0000 C   0  0  0  0  0  0  0  0  0  0  0  0
    1.5000   -5.1962    0.0000 C   0  0  0  0  0  0  0  0  0  0  0  0
    0.7500   -3.8971    0.0000 C   0  0  0  0  0  0  0  0  0  0  0  0
   -0.7500   -3.8971    0.0000 O   0  0  0  0  0  0  0  0  0  0  0  0
    1.5000   -2.5981    0.0000 N   0  0  0  0  0  0  0  0  0  0  0  0
    0.7500   -1.2990    0.0000 C   0  0  0  0  0  0  0  0  0  0  0  0
    1.5000    0.0000    0.0000 C   0  0  0  0  0  0  0  0  0  0  0  0
    0.7500    1.2990    0.0000 C   0  0  0  0  0  0  0  0  0  0  0  0
   -0.7500    1.2990    0.0000 C   0  0  0  0  0  0  0  0  0  0  0  0
   -1.5000    0.0000    0.0000 C   0  0  0  0  0  0  0  0  0  0  0  0
   -0.7500   -1.2990    0.0000 C   0  0  0  0  0  0  0  0  0  0  0  0
   -1.5000    2.5981    0.0000 C   0  0  0  0  0  0  0  0  0  0  0  0
   -2.2500    3.8971    0.0000 F   0  0  0  0  0  0  0  0  0  0  0  0
   -0.2010    3.3481    0.0000 F   0  0  0  0  0  0  0  0  0  0  0  0
   -2.7990    1.8481    0.0000 F   0  0  0  0  0  0  0  0  0  0  0  0
  1  2  1  0
  2  3  1  0
  3  4  1  0
  4  5  2  0
  5  6  1  0
  6  7  1  0
  7  8  2  0
  7  9  1  0
  9 10  1  0
 10 11  2  0
 11 12  1  0
 12 13  2  0
 13 14  1  0
 14 15  2  0
 13 16  1  0
 16 17  1  0
 16 18  1  0
 16 19  1  0
  6  2  2  0
 15 10  1  0
M  END
$$$$
499179
     RDKit          2D

 26 28  0  0  0  0  0  0  0  0999 V2000
   -0.0000   -5.1073    0.0000 C   0  0  0  0  0  0  0  0  0  0  0  0
   -0.0000   -3.6073    0.0000 C   0  0  0  0  0  0  0  0  0  0  0  0
    1.2135   -2.7256    0.0000 N   0  0  0  0  0  0  0  0  0  0  0  0
    0.7500   -1.2990    0.0000 C   0  0  0  0  0  0  0  0  0  0  0  0
    1.5000    0.0000    0.0000 C   0  0  0  0  0  0  0  0  0  0  0  0
    0.7500    1.2990    0.0000 C   0  0  0  0  0  0  0  0  0  0  0  0
   -0.7500    1.2990    0.0000 C   0  0  0  0  0  0  0  0  0  0  0  0
   -1.5000    0.0000    0.0000 C   0  0  0  0  0  0  0  0  0  0  0  0
   -0.7500   -1.2990    0.0000 C   0  0  0  0  0  0  0  0  0  0  0  0
   -1.2135   -2.7256    0.0000 C   0  0  0  0  0  0  0  0  0  0  0  0
   -2.6401   -3.1891    0.0000 C   0  0  0  0  0  0  0  0  0  0  0  0
   -2.9520   -4.6564    0.0000 C   0  0  0  0  0  0  0  0  0  0  0  0
   -4.3786   -5.1199    0.0000 N   0  0  0  0  0  0  0  0  0  0  0  0
   -4.6904   -6.5871    0.0000 C   0  0  0  0  0  0  0  0  0  0  0  0
   -6.1170   -7.0506    0.0000 C   0  0  0  0  0  0  0  0  0  0  0  0
   -7.2317   -6.0469    0.0000 C   0  0  0  0  0  0  0  0  0  0  0  0
   -8.6583   -6.5105    0.0000 C   0  0  0  0  0  0  0  0  0  0  0  0
   -8.9702   -7.9777    0.0000 C   0  0  0  0  0  0  0  0  0  0  0  0
  -10.3968   -8.4412    0.0000 C   0  0  0  0  0  0  0  0  0  0  0  0
  -10.7086   -9.9084    0.0000 C   0  0  0  0  0  0  0  0  0  0  0  0
  -12.1352  -10.3720    0.0000 C   0  0  0  0  0  0  0  0  0  0  0  0
  -13.2499   -9.3683    0.0000 O   0  0  0  0  0  0  0  0  0  0  0  0
  -12.4471  -11.8392    0.0000 N   0  0  0  0  0  0  0  0  0  0  0  0
  -13.8737  -12.3027    0.0000 O   0  0  0  0  0  0  0  0  0  0  0  0
   -7.8555   -8.9814    0.0000 C   0  0  0  0  0  0  0  0  0  0  0  0
   -6.4289   -8.5179    0.0000 C   0  0  0  0  0  0  0  0  0  0  0  0
  1  2  1  0
  2  3  1  0
  3  4  1  0
  4  5  2  0
  5  6  1  0
  6  7  2  0
  7  8  1  0
  8  9  2  0
  9 10  1  0
 10 11  1  0
 11 12  1  0
 12 13  1  0
 13 14  1  0
 14 15  1  0
 15 16  2  0
 16 17  1  0
 17 18  2  0
 18 19  1  0
 19 20  2  0
 20 21  1  0
 21 22  2  0
 21 23  1  0
 23 24  1  0
 18 25  1  0
 25 26  2  0
 10  2  2  0
  9  4  1  0
 26 15  1  0
M  END
$$$$
153342
     RDKit          2D

 22 25  0  0  0  0  0  0  0  0999 V2000
    1.6858   -7.6212    0.0000 C   0  0  0  0  0  0  0  0  0  0  0  0
    3.1530   -7.9331    0.0000 C   0  0  0  0  0  0  0  0  0  0  0  0
    3.7631   -9.3034    0.0000 N   0  0  0  0  0  0  0  0  0  0  0  0
    5.2549   -9.1466    0.0000 C   0  0  0  0  0  0  0  0  0  0  0  0
    5.5668   -7.6794    0.0000 N   0  0  0  0  0  0  0  0  0  0  0  0
    4.2677   -6.9294    0.0000 C   0  0  0  0  0  0  0  0  0  0  0  0
    4.1110   -5.4376    0.0000 C   0  0  0  0  0  0  0  0  0  0  0  0
    2.7406   -4.8275    0.0000 N   0  0  0  0  0  0  0  0  0  0  0  0
    1.5271   -5.7092    0.0000 C   0  0  0  0  0  0  0  0  0  0  0  0
    0.1568   -5.0991    0.0000 C   0  0  0  0  0  0  0  0  0  0  0  0
    0.0000   -3.6073    0.0000 C   0  0  0  0  0  0  0  0  0  0  0  0
    1.2135   -2.7256    0.0000 C   0  0  0  0  0  0  0  0  0  0  0  0
    2.5838   -3.3357    0.0000 C   0  0  0  0  0  0  0  0  0  0  0  0
    3.7974   -2.4540    0.0000 O   0  0  0  0  0  0  0  0  0  0  0  0
    0.7500   -1.2990    0.0000 C   0  0  0  0  0  0  0  0  0  0  0  0
    1.5000    0.0000    0.0000 C   0  0  0  0  0  0  0  0  0  0  0  0
    0.7500    1.2990    0.0000 C   0  0  0  0  0  0  0  0  0  0  0  0
   -0.7500    1.2990    0.0000 C   0  0  0  0  0  0  0  0  0  0  0  0
   -1.5000    0.0000    0.0000 C   0  0  0  0  0  0  0  0  0  0  0  0
   -0.7500   -1.2990    0.0000 C   0  0  0  0  0  0  0  0  0  0  0  0
   -1.2135   -2.7256    0.0000 N   0  0  0  0  0  0  0  0  0  0  0  0
   -2.6401   -3.1891    0.0000 C   0  0  0  0  0  0  0  0  0  0  0  0
  1  2  1  0
  2  3  1  0
  3  4  1  0
  4  5  2  0
  5  6  1  0
  6  7  1  0
  7  8  1  0
  8  9  1  0
  9 10  1  0
 10 11  1  0
 11 12  2  0
 12 13  1  0
 13 14  2  0
 12 15  1  0
 15 16  2  0
 16 17  1  0
 17 18  2  0
 18 19  1  0
 19 20  2  0
 20 21  1  0
 21 22  1  0
  6  2  2  0
 13  8  1  0
 21 11  1  0
 20 15  1  0
M  END
$$$$
1763771
     RDKit          2D

 27 29  0  0  0  0  0  0  0  0999 V2000
    5.2500   -1.2990    0.0000 C   0  0  0  0  0  0  0  0  0  0  0  0
    3.7500   -1.2990    0.0000 C   0  0  0  0  0  0  0  0  0  0  0  0
    3.0000    0.0000    0.0000 C   0  0  0  0  0  0  0  0  0  0  0  0
    1.5000    0.0000    0.0000 C   0  0  0  0  0  0  0  0  0  0  0  0
    0.7500   -1.2990    0.0000 C   0  0  0  0  0  0  0  0  0  0  0  0
   -0.7500   -1.2990    0.0000 N   0  0  0  0  0  0  0  0  0  0  0  0
   -1.5000    0.0000    0.0000 C   0  0  0  0  0  0  0  0  0  0  0  0
   -0.7500    1.2990    0.0000 S   0  0  0  0  0  0  0  0  0  0  0  0
    0.7500    1.2990    0.0000 C   0  0  0  0  0  0  0  0  0  0  0  0
   -2.7990   -0.7500    0.0000 C   0  0  0  0  0  0  0  0  0  0  0  0
   -4.2479   -0.3618    0.0000 N   0  0  0  0  0  0  0  0  0  0  0  0
   -4.6362    1.0871    0.0000 C   0  0  0  0  0  0  0  0  0  0  0  0
   -3.5755    2.1478    0.0000 O   0  0  0  0  0  0  0  0  0  0  0  0
   -6.0850    1.4753    0.0000 C   0  0  0  0  0  0  0  0  0  0  0  0
   -7.1457    0.4147    0.0000 N   0  0  0  0  0  0  0  0  0  0  0  0
   -6.4733    2.9242    0.0000 C   0  0  0  0  0  0  0  0  0  0  0  0
   -5.4126    3.9849    0.0000 C   0  0  0  0  0  0  0  0  0  0  0  0
   -5.8008    5.4338    0.0000 C   0  0  0  0  0  0  0  0  0  0  0  0
   -7.2497    5.8220    0.0000 C   0  0  0  0  0  0  0  0  0  0  0  0
   -7.6380    7.2709    0.0000 O   0  0  0  0  0  0  0  0  0  0  0  0
   -8.3104    4.7614    0.0000 C   0  0  0  0  0  0  0  0  0  0  0  0
   -7.9222    3.3125    0.0000 C   0  0  0  0  0  0  0  0  0  0  0  0
   -2.0490   -2.0490    0.0000 C   0  0  0  0  0  0  0  0  0  0  0  0
   -2.4373   -3.4979    0.0000 O   0  0  0  0  0  0  0  0  0  0  0  0
    1.5000   -2.5981    0.0000 C   0  0  0  0  0  0  0  0  0  0  0  0
    3.0000   -2.5981    0.0000 O   0  0  0  0  0  0  0  0  0  0  0  0
    0.7500   -3.8971    0.0000 O   0  0  0  0  0  0  0  0  0  0  0  0
  1  2  1  0
  2  3  2  3
  3  4  1  0
  4  5  2  0
  5  6  1  0
  6  7  1  0
  7  8  1  1
  8  9  1  0
  7 10  1  0
 10 11  1  1
 11 12  1  0
 12 13  2  0
 12 14  1  0
 14 15  1  6
 14 16  1  0
 16 17  2  0
 17 18  1  0
 18 19  2  0
 19 20  1  0
 19 21  1  0
 21 22  2  0
 10 23  1  0
 23 24  2  0
  5 25  1  0
 25 26  2  0
 25 27  1  0
  9  4  1  0
 23  6  1  0
 22 16  1  0
M  END
$$$$
2654
     RDKit          2D

 19 19  0  0  0  0  0  0  0  0999 V2000
    6.0000   -2.5981    0.0000 C   0  0  0  0  0  0  0  0  0  0  0  0
    5.2500   -1.2990    0.0000 C   0  0  0  0  0  0  0  0  0  0  0  0
    3.7500   -1.2990    0.0000 C   0  0  0  0  0  0  0  0  0  0  0  0
    3.0000   -2.5981    0.0000 C   0  0  0  0  0  0  0  0  0  0  0  0
    3.0000    0.0000    0.0000 C   0  0  0  0  0  0  0  0  0  0  0  0
    3.7500    1.2990    0.0000 O   0  0  0  0  0  0  0  0  0  0  0  0
    1.5000    0.0000    0.0000 C   0  0  0  0  0  0  0  0  0  0  0  0
    0.7500   -1.2990    0.0000 C   0  0  0  0  0  0  0  0  0  0  0  0
   -0.7500   -1.2990    0.0000 C   0  0  0  0  0  0  0  0  0  0  0  0
   -1.5000    0.0000    0.0000 C   0  0  0  0  0  0  0  0  0  0  0  0
   -3.0000    0.0000    0.0000 O   0  0  0  0  0  0  0  0  0  0  0  0
   -3.7500    1.2990    0.0000 C   0  0  0  0  0  0  0  0  0  0  0  0
   -5.2500    1.2990    0.0000 C   0  0  0  0  0  0  0  0  0  0  0  0
   -6.0000    0.0000    0.0000 O   0  0  0  0  0  0  0  0  0  0  0  0
   -6.0000    2.5981    0.0000 O   0  0  0  0  0  0  0  0  0  0  0  0
   -0.7500    1.2990    0.0000 C   0  0  0  0  0  0  0  0  0  0  0  0
   -1.5000    2.5981    0.0000 Cl  0  0  0  0  0  0  0  0  0  0  0  0
    0.7500    1.2990    0.0000 C   0  0  0  0  0  0  0  0  0  0  0  0
    1.5000    2.5981    0.0000 Cl  0  0  0  0  0  0  0  0  0  0  0  0
  1  2  1  0
  2  3  1  0
  3  4  2  0
  3  5  1  0
  5  6  2  0
  5  7  1  0
  7  8  2  0
  8  9  1  0
  9 10  2  0
 10 11  1  0
 11 12  1  0
 12 13  1  0
 13 14  2  0
 13 15  1  0
 10 16  1  0
 16 17  1  0
 16 18  2  0
 18 19  1  0
 18  7  1  0
M  END
$$$$
27576
     RDKit          2D

 23 24  0  0  0  0  0  0  0  0999 V2000
   -2.3971   -3.3481    0.0000 C   0  0  0  0  0  0  0  0  0  0  0  0
   -1.0981   -2.5981    0.0000 C   0  0  0  0  0  0  0  0  0  0  0  0
    0.2010   -3.3481    0.0000 C   0  0  0  0  0  0  0  0  0  0  0  0
    0.0529   -4.5540    0.0000 O   0  0  0  0  0  0  0  0  0  0  0  0
    1.5000   -2.5981    0.0000 C   0  0  0  0  0  0  0  0  0  0  0  0
    2.2500   -3.8971    0.0000 C   0  0  0  0  0  0  0  0  0  0  0  0
    1.5000   -5.1962    0.0000 C   0  0  0  0  0  0  0  0  0  0  0  0
    0.2941   -5.3443    0.0000 C   0  0  0  0  0  0  0  0  0  0  0  0
    2.2500   -6.4952    0.0000 N   0  0  0  0  0  0  0  0  0  0  0  0
    1.5000   -7.7942    0.0000 C   0  0  0  0  0  0  0  0  0  0  0  0
    3.7500   -6.4952    0.0000 C   0  0  0  0  0  0  0  0  0  0  0  0
    0.7500   -1.2990    0.0000 C   0  0  0  0  0  0  0  0  0  0  0  0
    1.5000    0.0000    0.0000 C   0  0  0  0  0  0  0  0  0  0  0  0
    0.7500    1.2990    0.0000 C   0  0  0  0  0  0  0  0  0  0  0  0
   -0.7500    1.2990    0.0000 C   0  0  0  0  0  0  0  0  0  0  0  0
   -1.5000    0.0000    0.0000 C   0  0  0  0  0  0  0  0  0  0  0  0
   -0.7500   -1.2990    0.0000 C   0  0  0  0  0  0  0  0  0  0  0  0
    2.7990   -1.8481    0.0000 C   0  0  0  0  0  0  0  0  0  0  0  0
    2.7990   -0.3481    0.0000 C   0  0  0  0  0  0  0  0  0  0  0  0
    4.0981    0.4019    0.0000 C   0  0  0  0  0  0  0  0  0  0  0  0
    5.3971   -0.3481    0.0000 C   0  0  0  0  0  0  0  0  0  0  0  0
    5.3971   -1.8481    0.0000 C   0  0  0  0  0  0  0  0  0  0  0  0
    4.0981   -2.5981    0.0000 C   0  0  0  0  0  0  0  0  0  0  0  0
  1  2  1  0
  2  3  1  0
  3  4  2  0
  3  5  1  0
  5  6  1  0
  6  7  1  0
  7  8  1  0
  7  9  1  0
  9 10  1  0
  9 11  1  0
  5 12  1  0
 12 13  2  0
 13 14  1  0
 14 15  2  0
 15 16  1  0
 16 17  2  0
  5 18  1  0
 18 19  2  0
 19 20  1  0
 20 21  2  0
 21 22  1  0
 22 23  2  0
 17 12  1  0
 23 18  1  0
M  END
$$$$
675279
     RDKit          2D

 30 33  0  0  0  0  0  0  0  0999 V2000
   -3.7500   -9.0933    0.0000 C   0  0  0  0  0  0  0  0  0  0  0  0
   -3.0000   -7.7942    0.0000 C   0  0  0  0  0  0  0  0  0  0  0  0
   -1.5000   -7.7942    0.0000 C   0  0  0  0  0  0  0  0  0  0  0  0
   -0.7500   -9.0933    0.0000 O   0  0  0  0  0  0  0  0  0  0  0  0
   -0.7500   -6.4952    0.0000 C   0  0  0  0  0  0  0  0  0  0  0  0
    0.7500   -6.4952    0.0000 C   0  0  0  0  0  0  0  0  0  0  0  0
    1.5000   -5.1962    0.0000 C   0  0  0  0  0  0  0  0  0  0  0  0
    0.7500   -3.8971    0.0000 C   0  0  0  0  0  0  0  0  0  0  0  0
    1.5000   -2.5981    0.0000 S   0  0  0  0  0  0  0  0  0  0  0  0
    0.7500   -1.2990    0.0000 C   0  0  0  0  0  0  0  0  0  0  0  0
    1.5000    0.0000    0.0000 C   0  0  0  0  0  0  0  0  0  0  0  0
    0.7500    1.2990    0.0000 C   0  0  0  0  0  0  0  0  0  0  0  0
   -0.7500    1.2990    0.0000 C   0  0  0  0  0  0  0  0  0  0  0  0
   -1.5000    0.0000    0.0000 C   0  0  0  0  0  0  0  0  0  0  0  0
   -0.7500   -1.2990    0.0000 C   0  0  0  0  0  0  0  0  0  0  0  0
   -1.5000   -2.5981    0.0000 N   0  0  0  0  0  0  0  0  0  0  0  0
   -3.0000   -2.5981    0.0000 C   0  0  0  0  0  0  0  0  0  0  0  0
   -3.7500   -1.2990    0.0000 C   0  0  0  0  0  0  0  0  0  0  0  0
   -5.2500   -1.2990    0.0000 C   0  0  0  0  0  0  0  0  0  0  0  0
   -6.0000    0.0000    0.0000 N   0  0  0  0  0  0  0  0  0  0  0  0
   -5.2500    1.2990    0.0000 C   0  0  0  0  0  0  0  0  0  0  0  0
   -6.0000    2.5981    0.0000 C   0  0  0  0  0  0  0  0  0  0  0  0
   -7.5000    2.5981    0.0000 N   0  0  0  0  0  0  0  0  0  0  0  0
   -8.2500    3.8971    0.0000 C   0  0  0  0  0  0  0  0  0  0  0  0
   -7.5000    5.1962    0.0000 C   0  0  0  0  0  0  0  0  0  0  0  0
   -8.2500    6.4952    0.0000 O   0  0  0  0  0  0  0  0  0  0  0  0
   -8.2500    1.2990    0.0000 C   0  0  0  0  0  0  0  0  0  0  0  0
   -7.5000    0.0000    0.0000 C   0  0  0  0  0  0  0  0  0  0  0  0
   -0.7500   -3.8971    0.0000 C   0  0  0  0  0  0  0  0  0  0  0  0
   -1.5000   -5.1962    0.0000 C   0  0  0  0  0  0  0  0  0  0  0  0
  1  2  1  0
  2  3  1  0
  3  4  2  0
  3  5  1  0
  5  6  2  0
  6  7  1  0
  7  8  2  0
  8  9  1  0
  9 10  1  0
 10 11  2  0
 11 12  1  0
 12 13  2  0
 13 14  1  0
 14 15  2  0
 15 16  1  0
 16 17  1  0
 17 18  1  0
 18 19  1  0
 19 20  1  0
 20 21  1  0
 21 22  1  0
 22 23  1  0
 23 24  1  0
 24 25  1  0
 25 26  1  0
 23 27  1  0
 27 28  1  0
 16 29  1  0
 29 30  2  0
 30  5  1  0
 29  8  1  0
 15 10  1  0
 28 20  1  0
M  END
$$$$
1535336
     RDKit          2D

 46 47  0  0  0  0  0  0  0  0999 V2000
   -3.7500   -9.0933    0.0000 C   0  0  0  0  0  0  0  0  0  0  0  0
   -3.0000   -7.7942    0.0000 C   0  0  0  0  0  0  0  0  0  0  0  0
   -1.5000   -7.7942    0.0000 C   0  0  0  0  0  0  0  0  0  0  0  0
   -0.7500   -9.0933    0.0000 O   0  0  0  0  0  0  0  0  0  0  0  0
   -0.7500   -6.4952    0.0000 C   0  0  0  0  0  0  0  0  0  0  0  0
    0.7500   -6.4952    0.0000 C   0  0  0  0  0  0  0  0  0  0  0  0
    1.5000   -5.1962    0.0000 C   0  0  0  0  0  0  0  0  0  0  0  0
    0.7500   -3.8971    0.0000 C   0  0  0  0  0  0  0  0  0  0  0  0
    1.5000   -2.5981    0.0000 S   0  0  0  0  0  0  0  0  0  0  0  0
    0.7500   -1.2990    0.0000 C   0  0  0  0  0  0  0  0  0  0  0  0
    1.5000    0.0000    0.0000 C   0  0  0  0  0  0  0  0  0  0  0  0
    0.7500    1.2990    0.0000 C   0  0  0  0  0  0  0  0  0  0  0  0
   -0.7500    1.2990    0.0000 C   0  0  0  0  0  0  0  0  0  0  0  0
   -1.5000    0.0000    0.0000 C   0  0  0  0  0  0  0  0  0  0  0  0
   -0.7500   -1.2990    0.0000 C   0  0  0  0  0  0  0  0  0  0  0  0
   -1.5000   -2.5981    0.0000 N   0  0  0  0  0  0  0  0  0  0  0  0
   -3.0000   -2.5981    0.0000 C   0  0  0  0  0  0  0  0  0  0  0  0
   -3.7500   -1.2990    0.0000 C   0  0  0  0  0  0  0  0  0  0  0  0
   -5.2500   -1.2990    0.0000 C   0  0  0  0  0  0  0  0  0  0  0  0
   -6.0000    0.0000    0.0000 N   0  0  0  0  0  0  0  0  0  0  0  0
   -5.2500    1.2990    0.0000 C   0  0  0  0  0  0  0  0  0  0  0  0
   -6.0000    2.5981    0.0000 C   0  0  0  0  0  0  0  0  0  0  0  0
   -7.5000    2.5981    0.0000 N   0  0  0  0  0  0  0  0  0  0  0  0
   -8.2500    3.8971    0.0000 C   0  0  0  0  0  0  0  0  0  0  0  0
   -7.5000    5.1962    0.0000 C   0  0  0  0  0  0  0  0  0  0  0  0
   -8.2500    6.4952    0.0000 O   0  0  0  0  0  0  0  0  0  0  0  0
   -8.2500    1.2990    0.0000 C   0  0  0  0  0  0  0  0  0  0  0  0
   -7.5000    0.0000    0.0000 C   0  0  0  0  0  0  0  0  0  0  0  0
   -0.7500   -3.8971    0.0000 C   0  0  0  0  0  0  0  0  0  0  0  0
   -1.5000   -5.1962    0.0000 C   0  0  0  0  0  0  0  0  0  0  0  0
    2.5000   -1.2990    0.0000 O   0  0  0  0  0  0  0  0  0  0  0  0
    4.0000   -1.2990    0.0000 C   0  0  0  0  0  0  0  0  0  0  0  0
    4.7500   -2.5981    0.0000 O   0  0  0  0  0  0  0  0  0  0  0  0
    4.7500    0.0000    0.0000 C   0  0  0  0  0  0  0  0  0  0  0  0
    6.2500    0.0000    0.0000 C   0  0  0  0  0  0  0  0  0  0  0  0
    7.0000   -1.2990    0.0000 C   0  0  0  0  0  0  0  0  0  0  0  0
    6.2500   -2.5981    0.0000 O   0  0  0  0  0  0  0  0  0  0  0  0
    8.5000   -1.2990    0.0000 O   0  0  0  0  0  0  0  0  0  0  0  0
   -2.2500    8.7942    0.0000 O   0  0  0  0  0  0  0  0  0  0  0  0
   -0.7500    8.7942    0.0000 C   0  0  0  0  0  0  0  0  0  0  0  0
    0.0000    7.4952    0.0000 O   0  0  0  0  0  0  0  0  0  0  0  0
    0.0000   10.0933    0.0000 C   0  0  0  0  0  0  0  0  0  0  0  0
    1.5000   10.0933    0.0000 C   0  0  0  0  0  0  0  0  0  0  0  0
    2.2500    8.7942    0.0000 C   0  0  0  0  0  0  0  0  0  0  0  0
    1.5000    7.4952    0.0000 O   0  0  0  0  0  0  0  0  0  0  0  0
    3.7500    8.7942    0.0000 O   0  0  0  0  0  0  0  0  0  0  0  0
  1  2  1  0
  2  3  1  0
  3  4  2  0
  3  5  1  0
  5  6  2  0
  6  7  1  0
  7  8  2  0
  8  9  1  0
  9 10  1  0
 10 11  2  0
 11 12  1  0
 12 13  2  0
 13 14  1  0
 14 15  2  0
 15 16  1  0
 16 17  1  0
 17 18  1  0
 18 19  1  0
 19 20  1  0
 20 21  1  0
 21 22  1  0
 22 23  1  0
 23 24  1  0
 24 25  1  0
 25 26  1  0
 23 27  1  0
 27 28  1  0
 16 29  1  0
 29 30  2  0
 31 32  1  0
 32 33  2  0
 32 34  1  0
 34 35  2  0
 35 36  1  0
 36 37  2  0
 36 38  1  0
 39 40  1  0
 40 41  2  0
 40 42  1  0
 42 43  2  0
 43 44  1  0
 44 45  2  0
 44 46  1  0
 30  5  1  0
 29  8  1  0
 15 10  1  0
 28 20  1  0
M  END
$$$$
19915
     RDKit          2D

 25 27  0  0  0  0  0  0  0  0999 V2000
    5.2500   -3.8971    0.0000 C   0  0  0  0  0  0  0  0  0  0  0  0
    3.7500   -3.8971    0.0000 C   0  0  0  0  0  0  0  0  0  0  0  0
    3.0000   -2.5981    0.0000 C   0  0  0  0  0  0  0  0  0  0  0  0
    3.7500   -1.2990    0.0000 O   0  0  0  0  0  0  0  0  0  0  0  0
    1.5000   -2.5981    0.0000 N   0  0  0  0  0  0  0  0  0  0  0  0
    0.7500   -1.2990    0.0000 C   0  0  0  0  0  0  0  0  0  0  0  0
    1.5000    0.0000    0.0000 C   0  0  0  0  0  0  0  0  0  0  0  0
    0.7500    1.2990    0.0000 C   0  0  0  0  0  0  0  0  0  0  0  0
   -0.7500    1.2990    0.0000 N   0  0  0  0  0  0  0  0  0  0  0  0
   -1.5000    2.5981    0.0000 C   0  0  0  0  0  0  0  0  0  0  0  0
   -0.7500    3.8971    0.0000 C   0  0  0  0  0  0  0  0  0  0  0  0
   -1.5000    5.1962    0.0000 C   0  0  0  0  0  0  0  0  0  0  0  0
   -0.7500    6.4952    0.0000 C   0  0  0  0  0  0  0  0  0  0  0  0
   -1.5000    7.7942    0.0000 C   0  0  0  0  0  0  0  0  0  0  0  0
   -3.0000    7.7942    0.0000 C   0  0  0  0  0  0  0  0  0  0  0  0
   -3.7500    6.4952    0.0000 C   0  0  0  0  0  0  0  0  0  0  0  0
   -3.0000    5.1962    0.0000 C   0  0  0  0  0  0  0  0  0  0  0  0
   -1.5000    0.0000    0.0000 C   0  0  0  0  0  0  0  0  0  0  0  0
   -0.7500   -1.2990    0.0000 C   0  0  0  0  0  0  0  0  0  0  0  0
    0.7500   -3.8971    0.0000 C   0  0  0  0  0  0  0  0  0  0  0  0
   -0.7500   -3.8971    0.0000 C   0  0  0  0  0  0  0  0  0  0  0  0
   -1.5000   -5.1962    0.0000 C   0  0  0  0  0  0  0  0  0  0  0  0
   -0.7500   -6.4952    0.0000 C   0  0  0  0  0  0  0  0  0  0  0  0
    0.7500   -6.4952    0.0000 C   0  0  0  0  0  0  0  0  0  0  0  0
    1.5000   -5.1962    0.0000 C   0  0  0  0  0  0  0  0  0  0  0  0
  1  2  1  0
  2  3  1  0
  3  4  2  0
  3  5  1  0
  5  6  1  0
  6  7  1  0
  7  8  1  0
  8  9  1  0
  9 10  1  0
 10 11  1  0
 11 12  1  0
 12 13  2  0
 13 14  1  0
 14 15  2  0
 15 16  1  0
 16 17  2  0
  9 18  1  0
 18 19  1  0
  5 20  1  0
 20 21  2  0
 21 22  1  0
 22 23  2  0
 23 24  1  0
 24 25  2  0
 19  6  1  0
 17 12  1  0
 25 20  1  0
M  END
$$$$
30072
     RDKit          2D

 38 39  0  0  0  0  0  0  0  0999 V2000
    5.2500   -3.8971    0.0000 C   0  0  0  0  0  0  0  0  0  0  0  0
    3.7500   -3.8971    0.0000 C   0  0  0  0  0  0  0  0  0  0  0  0
    3.0000   -2.5981    0.0000 C   0  0  0  0  0  0  0  0  0  0  0  0
    3.7500   -1.2990    0.0000 O   0  0  0  0  0  0  0  0  0  0  0  0
    1.5000   -2.5981    0.0000 N   0  0  0  0  0  0  0  0  0  0  0  0
    0.7500   -1.2990    0.0000 C   0  0  0  0  0  0  0  0  0  0  0  0
    1.5000    0.0000    0.0000 C   0  0  0  0  0  0  0  0  0  0  0  0
    0.7500    1.2990    0.0000 C   0  0  0  0  0  0  0  0  0  0  0  0
   -0.7500    1.2990    0.0000 N   0  0  0  0  0  0  0  0  0  0  0  0
   -1.5000    2.5981    0.0000 C   0  0  0  0  0  0  0  0  0  0  0  0
   -0.7500    3.8971    0.0000 C   0  0  0  0  0  0  0  0  0  0  0  0
   -1.5000    5.1962    0.0000 C   0  0  0  0  0  0  0  0  0  0  0  0
   -0.7500    6.4952    0.0000 C   0  0  0  0  0  0  0  0  0  0  0  0
   -1.5000    7.7942    0.0000 C   0  0  0  0  0  0  0  0  0  0  0  0
   -3.0000    7.7942    0.0000 C   0  0  0  0  0  0  0  0  0  0  0  0
   -3.7500    6.4952    0.0000 C   0  0  0  0  0  0  0  0  0  0  0  0
   -3.0000    5.1962    0.0000 C   0  0  0  0  0  0  0  0  0  0  0  0
   -1.5000    0.0000    0.0000 C   0  0  0  0  0  0  0  0  0  0  0  0
   -0.7500   -1.2990    0.0000 C   0  0  0  0  0  0  0  0  0  0  0  0
    0.7500   -3.8971    0.0000 C   0  0  0  0  0  0  0  0  0  0  0  0
   -0.7500   -3.8971    0.0000 C   0  0  0  0  0  0  0  0  0  0  0  0
   -1.5000   -5.1962    0.0000 C   0  0  0  0  0  0  0  0  0  0  0  0
   -0.7500   -6.4952    0.0000 C   0  0  0  0  0  0  0  0  0  0  0  0
    0.7500   -6.4952    0.0000 C   0  0  0  0  0  0  0  0  0  0  0  0
    1.5000   -5.1962    0.0000 C   0  0  0  0  0  0  0  0  0  0  0  0
    6.2500    0.0000    0.0000 O   0  0  0  0  0  0  0  0  0  0  0  0
    7.5490    0.7500    0.0000 C   0  0  0  0  0  0  0  0  0  0  0  0
    7.5490    2.2500    0.0000 O   0  0  0  0  0  0  0  0  0  0  0  0
    8.8481    0.0000    0.0000 C   0  0  0  0  0  0  0  0  0  0  0  0
   10.1471    0.7500    0.0000 C   0  0  0  0  0  0  0  0  0  0  0  0
    9.3971    2.0490    0.0000 O   0  0  0  0  0  0  0  0  0  0  0  0
   11.4462    1.5000    0.0000 C   0  0  0  0  0  0  0  0  0  0  0  0
   11.4462    3.0000    0.0000 C   0  0  0  0  0  0  0  0  0  0  0  0
   10.1471    3.7500    0.0000 O   0  0  0  0  0  0  0  0  0  0  0  0
   12.7452    3.7500    0.0000 O   0  0  0  0  0  0  0  0  0  0  0  0
   10.8971   -0.5490    0.0000 C   0  0  0  0  0  0  0  0  0  0  0  0
   10.1471   -1.8481    0.0000 O   0  0  0  0  0  0  0  0  0  0  0  0
   12.3971   -0.5490    0.0000 O   0  0  0  0  0  0  0  0  0  0  0  0
  1  2  1  0
  2  3  1  0
  3  4  2  0
  3  5  1  0
  5  6  1  0
  6  7  1  0
  7  8  1  0
  8  9  1  0
  9 10  1  0
 10 11  1  0
 11 12  1  0
 12 13  2  0
 13 14  1  0
 14 15  2  0
 15 16  1  0
 16 17  2  0
  9 18  1  0
 18 19  1  0
  5 20  1  0
 20 21  2  0
 21 22  1  0
 22 23  2  0
 23 24  1  0
 24 25  2  0
 26 27  1  0
 27 28  2  0
 27 29  1  0
 29 30  1  0
 30 31  1  0
 30 32  1  0
 32 33  1  0
 33 34  2  0
 33 35  1  0
 30 36  1  0
 36 37  2  0
 36 38  1  0
 19  6  1  0
 17 12  1  0
 25 20  1  0
M  END
$$$$
221962
     RDKit          2D

 19 21  0  0  0  0  0  0  0  0999 V2000
  -10.3888   -2.3002    0.0000 C   0  0  0  0  0  0  0  0  0  0  0  0
   -8.8888   -2.3002    0.0000 C   0  0  0  0  0  0  0  0  0  0  0  0
   -8.1388   -1.0012    0.0000 C   0  0  0  0  0  0  0  0  0  0  0  0
   -8.8888    0.2979    0.0000 O   0  0  0  0  0  0  0  0  0  0  0  0
   -6.6388   -1.0012    0.0000 N   0  0  0  0  0  0  0  0  0  0  0  0
   -5.8888    0.2979    0.0000 C   0  0  0  0  0  0  0  0  0  0  0  0
   -4.3888    0.2979    0.0000 C   0  0  0  0  0  0  0  0  0  0  0  0
   -3.6388    1.5969    0.0000 C   0  0  0  0  0  0  0  0  0  0  0  0
   -4.2489    2.9672    0.0000 C   0  0  0  0  0  0  0  0  0  0  0  0
   -3.1342    3.9709    0.0000 C   0  0  0  0  0  0  0  0  0  0  0  0
   -1.8351    3.2209    0.0000 C   0  0  0  0  0  0  0  0  0  0  0  0
   -0.4086    3.6844    0.0000 C   0  0  0  0  0  0  0  0  0  0  0  0
    0.7062    2.6807    0.0000 C   0  0  0  0  0  0  0  0  0  0  0  0
    0.3943    1.2135    0.0000 C   0  0  0  0  0  0  0  0  0  0  0  0
    1.2760    0.0000    0.0000 O   0  0  0  0  0  0  0  0  0  0  0  0
    0.3943   -1.2135    0.0000 C   0  0  0  0  0  0  0  0  0  0  0  0
   -1.0323   -0.7500    0.0000 C   0  0  0  0  0  0  0  0  0  0  0  0
   -1.0323    0.7500    0.0000 C   0  0  0  0  0  0  0  0  0  0  0  0
   -2.1470    1.7537    0.0000 C   0  0  0  0  0  0  0  0  0  0  0  0
  1  2  1  0
  2  3  1  0
  3  4  2  0
  3  5  1  0
  5  6  1  0
  6  7  1  0
  8  7  1  6
  8  9  1  0
  9 10  1  0
 10 11  1  0
 11 12  2  0
 12 13  1  0
 13 14  2  0
 14 15  1  0
 15 16  1  0
 16 17  1  0
 17 18  1  0
 18 19  2  0
 19  8  1  0
 19 11  1  0
 18 14  1  0
M  END
$$$$
1376092
     RDKit          2D

 18 20  0  0  0  0  0  0  0  0999 V2000
   -7.7612    7.5476    0.0000 C   0  0  0  0  0  0  0  0  0  0  0  0
   -6.6465    6.5439    0.0000 C   0  0  0  0  0  0  0  0  0  0  0  0
   -6.9584    5.0767    0.0000 C   0  0  0  0  0  0  0  0  0  0  0  0
   -8.3850    4.6131    0.0000 O   0  0  0  0  0  0  0  0  0  0  0  0
   -5.8437    4.0730    0.0000 N   0  0  0  0  0  0  0  0  0  0  0  0
   -6.1555    2.6057    0.0000 C   0  0  0  0  0  0  0  0  0  0  0  0
   -5.0408    1.6020    0.0000 C   0  0  0  0  0  0  0  0  0  0  0  0
   -4.5773    0.1755    0.0000 C   0  0  0  0  0  0  0  0  0  0  0  0
   -3.5736    1.2902    0.0000 C   0  0  0  0  0  0  0  0  0  0  0  0
   -2.1470    1.7537    0.0000 C   0  0  0  0  0  0  0  0  0  0  0  0
   -1.8351    3.2209    0.0000 C   0  0  0  0  0  0  0  0  0  0  0  0
   -0.4086    3.6844    0.0000 C   0  0  0  0  0  0  0  0  0  0  0  0
    0.7062    2.6807    0.0000 C   0  0  0  0  0  0  0  0  0  0  0  0
    0.3943    1.2135    0.0000 C   0  0  0  0  0  0  0  0  0  0  0  0
    1.2760    0.0000    0.0000 O   0  0  0  0  0  0  0  0  0  0  0  0
    0.3943   -1.2135    0.0000 C   0  0  0  0  0  0  0  0  0  0  0  0
   -1.0323   -0.7500    0.0000 C   0  0  0  0  0  0  0  0  0  0  0  0
   -1.0323    0.7500    0.0000 C   0  0  0  0  0  0  0  0  0  0  0  0
  1  2  1  0
  2  3  1  0
  3  4  2  0
  3  5  1  0
  5  6  1  0
  7  6  1  1
  7  8  1  0
  8  9  1  0
  9 10  1  6
 10 11  2  0
 11 12  1  0
 12 13  2  0
 13 14  1  0
 14 15  1  0
 15 16  1  0
 16 17  1  0
 17 18  1  0
  9  7  1  0
 18 10  1  0
 18 14  2  0
M  END
$$$$
1592409
     RDKit          2D

 39 41  0  0  0  0  0  0  0  0999 V2000
    6.6962  -12.2942    0.0000 C   0  0  0  0  0  0  0  0  0  0  0  0
    5.3971  -11.5442    0.0000 C   0  0  0  0  0  0  0  0  0  0  0  0
    5.3971  -10.0442    0.0000 C   0  0  0  0  0  0  0  0  0  0  0  0
    6.6962   -9.2942    0.0000 O   0  0  0  0  0  0  0  0  0  0  0  0
    4.0981   -9.2942    0.0000 O   0  0  0  0  0  0  0  0  0  0  0  0
    4.0981   -7.7942    0.0000 C   0  0  0  0  0  0  0  0  0  0  0  0
    2.7990   -7.0442    0.0000 O   0  0  0  0  0  0  0  0  0  0  0  0
    1.5000   -7.7942    0.0000 P   0  0  0  0  0  5  0  0  0  0  0  0
    0.2010   -8.5442    0.0000 O   0  0  0  0  0  0  0  0  0  0  0  0
    0.7500   -6.4952    0.0000 C   0  0  0  0  0  0  0  0  0  0  0  0
    1.5000   -5.1962    0.0000 C   0  0  0  0  0  0  0  0  0  0  0  0
    0.7500   -3.8971    0.0000 C   0  0  0  0  0  0  0  0  0  0  0  0
    1.5000   -2.5981    0.0000 C   0  0  0  0  0  0  0  0  0  0  0  0
    0.7500   -1.2990    0.0000 C   0  0  0  0  0  0  0  0  0  0  0  0
    1.5000    0.0000    0.0000 C   0  0  0  0  0  0  0  0  0  0  0  0
    0.7500    1.2990    0.0000 C   0  0  0  0  0  0  0  0  0  0  0  0
   -0.7500    1.2990    0.0000 C   0  0  0  0  0  0  0  0  0  0  0  0
   -1.5000    0.0000    0.0000 C   0  0  0  0  0  0  0  0  0  0  0  0
   -0.7500   -1.2990    0.0000 C   0  0  0  0  0  0  0  0  0  0  0  0
    2.2500   -9.0933    0.0000 C   0  0  0  0  0  0  0  0  0  0  0  0
    1.5000  -10.3923    0.0000 C   0  0  0  0  0  0  0  0  0  0  0  0
    0.0000  -10.3923    0.0000 O   0  0  0  0  0  0  0  0  0  0  0  0
    2.2500  -11.6913    0.0000 N   0  0  0  0  0  0  0  0  0  0  0  0
    3.7418  -11.8481    0.0000 C   0  0  0  0  0  0  0  0  0  0  0  0
    4.0537  -13.3154    0.0000 C   0  0  0  0  0  0  0  0  0  0  0  0
    2.7546  -14.0654    0.0000 C   0  0  0  0  0  0  0  0  0  0  0  0
    1.6399  -13.0617    0.0000 C   0  0  0  0  0  0  0  0  0  0  0  0
    0.1727  -13.3735    0.0000 C   0  0  0  0  0  0  0  0  0  0  0  0
   -0.2909  -14.8001    0.0000 O   0  0  0  0  0  0  0  0  0  0  0  0
   -0.8310  -12.2588    0.0000 O   0  0  0  0  0  0  0  0  0  0  0  0
    5.4240  -13.9255    0.0000 C   0  0  0  0  0  0  0  0  0  0  0  0
    5.5808  -15.4172    0.0000 C   0  0  0  0  0  0  0  0  0  0  0  0
    6.9511  -16.0273    0.0000 C   0  0  0  0  0  0  0  0  0  0  0  0
    8.1646  -15.1457    0.0000 C   0  0  0  0  0  0  0  0  0  0  0  0
    8.0078  -13.6539    0.0000 C   0  0  0  0  0  0  0  0  0  0  0  0
    6.6375  -13.0438    0.0000 C   0  0  0  0  0  0  0  0  0  0  0  0
    5.3971   -7.0442    0.0000 C   0  0  0  0  0  0  0  0  0  0  0  0
    6.6962   -7.7942    0.0000 C   0  0  0  0  0  0  0  0  0  0  0  0
    5.3971   -5.5442    0.0000 C   0  0  0  0  0  0  0  0  0  0  0  0
  1  2  1  0
  2  3  1  0
  3  4  2  0
  3  5  1  0
  6  5  1  1
  6  7  1  0
  7  8  1  0
  8  9  2  0
  8 10  1  1
 10 11  1  0
 11 12  1  0
 12 13  1  0
 13 14  1  0
 14 15  2  0
 15 16  1  0
 16 17  2  0
 17 18  1  0
 18 19  2  0
  8 20  1  0
 20 21  1  0
 21 22  2  0
 21 23  1  0
 23 24  1  0
 24 25  1  0
 25 26  1  0
 26 27  1  0
 27 28  1  1
 28 29  2  0
 28 30  1  0
 25 31  1  6
 31 32  1  0
 32 33  1  0
 33 34  1  0
 34 35  1  0
 35 36  1  0
  6 37  1  0
 37 38  1  0
 37 39  1  0
 19 14  1  0
 27 23  1  0
 36 31  1  0
M  END
$$$$
685193
     RDKit          2D

 25 26  0  0  0  0  0  0  0  0999 V2000
   -4.4462   -3.8971    0.0000 C   0  0  0  0  0  0  0  0  0  0  0  0
   -3.1471   -3.1471    0.0000 C   0  0  0  0  0  0  0  0  0  0  0  0
   -1.8481   -3.8971    0.0000 C   0  0  0  0  0  0  0  0  0  0  0  0
   -1.9962   -5.1031    0.0000 O   0  0  0  0  0  0  0  0  0  0  0  0
   -0.5490   -3.1471    0.0000 O   0  0  0  0  0  0  0  0  0  0  0  0
    0.7500   -3.8971    0.0000 C   0  0  0  0  0  0  0  0  0  0  0  0
    1.5000   -2.5981    0.0000 C   0  0  0  0  0  0  0  0  0  0  0  0
    0.7500   -1.2990    0.0000 C   0  0  0  0  0  0  0  0  0  0  0  0
    1.5000    0.0000    0.0000 C   0  0  0  0  0  0  0  0  0  0  0  0
    0.7500    1.2990    0.0000 C   0  0  0  0  0  0  0  0  0  0  0  0
   -0.7500    1.2990    0.0000 C   0  0  0  0  0  0  0  0  0  0  0  0
   -1.5000    0.0000    0.0000 C   0  0  0  0  0  0  0  0  0  0  0  0
   -0.7500   -1.2990    0.0000 C   0  0  0  0  0  0  0  0  0  0  0  0
   -0.0000   -5.1962    0.0000 C   0  0  0  0  0  0  0  0  0  0  0  0
   -1.2059   -5.3443    0.0000 C   0  0  0  0  0  0  0  0  0  0  0  0
    0.7500   -6.4952    0.0000 C   0  0  0  0  0  0  0  0  0  0  0  0
   -0.0000   -7.7942    0.0000 N   0  0  0  0  0  0  0  0  0  0  0  0
    0.7500   -9.0933    0.0000 C   0  0  0  0  0  0  0  0  0  0  0  0
   -1.5000   -7.7942    0.0000 C   0  0  0  0  0  0  0  0  0  0  0  0
    2.0490   -4.6471    0.0000 C   0  0  0  0  0  0  0  0  0  0  0  0
    2.0490   -6.1471    0.0000 C   0  0  0  0  0  0  0  0  0  0  0  0
    3.3481   -6.8971    0.0000 C   0  0  0  0  0  0  0  0  0  0  0  0
    4.6471   -6.1471    0.0000 C   0  0  0  0  0  0  0  0  0  0  0  0
    4.6471   -4.6471    0.0000 C   0  0  0  0  0  0  0  0  0  0  0  0
    3.3481   -3.8971    0.0000 C   0  0  0  0  0  0  0  0  0  0  0  0
  1  2  1  0
  2  3  1  0
  3  4  2  0
  3  5  1  0
  5  6  1  0
  6  7  1  1
  7  8  1  0
  8  9  2  0
  9 10  1  0
 10 11  2  0
 11 12  1  0
 12 13  2  0
  6 14  1  0
 14 15  1  1
 14 16  1  0
 16 17  1  0
 17 18  1  0
 17 19  1  0
  6 20  1  0
 20 21  2  0
 21 22  1  0
 22 23  2  0
 23 24  1  0
 24 25  2  0
 13  8  1  0
 25 20  1  0
M  END
$$$$
699436
     RDKit          2D

 39 41  0  0  0  0  0  0  0  0999 V2000
   -4.4462   -3.8971    0.0000 C   0  0  0  0  0  0  0  0  0  0  0  0
   -3.1471   -3.1471    0.0000 C   0  0  0  0  0  0  0  0  0  0  0  0
   -1.8481   -3.8971    0.0000 C   0  0  0  0  0  0  0  0  0  0  0  0
   -1.9962   -5.1031    0.0000 O   0  0  0  0  0  0  0  0  0  0  0  0
   -0.5490   -3.1471    0.0000 O   0  0  0  0  0  0  0  0  0  0  0  0
    0.7500   -3.8971    0.0000 C   0  0  0  0  0  0  0  0  0  0  0  0
    1.5000   -2.5981    0.0000 C   0  0  0  0  0  0  0  0  0  0  0  0
    0.7500   -1.2990    0.0000 C   0  0  0  0  0  0  0  0  0  0  0  0
    1.5000    0.0000    0.0000 C   0  0  0  0  0  0  0  0  0  0  0  0
    0.7500    1.2990    0.0000 C   0  0  0  0  0  0  0  0  0  0  0  0
   -0.7500    1.2990    0.0000 C   0  0  0  0  0  0  0  0  0  0  0  0
   -1.5000    0.0000    0.0000 C   0  0  0  0  0  0  0  0  0  0  0  0
   -0.7500   -1.2990    0.0000 C   0  0  0  0  0  0  0  0  0  0  0  0
   -0.0000   -5.1962    0.0000 C   0  0  0  0  0  0  0  0  0  0  0  0
   -1.2059   -5.3443    0.0000 C   0  0  0  0  0  0  0  0  0  0  0  0
    0.7500   -6.4952    0.0000 C   0  0  0  0  0  0  0  0  0  0  0  0
   -0.0000   -7.7942    0.0000 N   0  0  0  0  0  0  0  0  0  0  0  0
    0.7500   -9.0933    0.0000 C   0  0  0  0  0  0  0  0  0  0  0  0
   -1.5000   -7.7942    0.0000 C   0  0  0  0  0  0  0  0  0  0  0  0
    2.0490   -4.6471    0.0000 C   0  0  0  0  0  0  0  0  0  0  0  0
    2.0490   -6.1471    0.0000 C   0  0  0  0  0  0  0  0  0  0  0  0
    3.3481   -6.8971    0.0000 C   0  0  0  0  0  0  0  0  0  0  0  0
    4.6471   -6.1471    0.0000 C   0  0  0  0  0  0  0  0  0  0  0  0
    4.6471   -4.6471    0.0000 C   0  0  0  0  0  0  0  0  0  0  0  0
    3.3481   -3.8971    0.0000 C   0  0  0  0  0  0  0  0  0  0  0  0
    6.1962   -6.4952    0.0000 O   0  0  0  0  0  0  0  0  0  0  0  0
    6.9462   -5.1962    0.0000 S   0  0  0  0  0  0  0  0  0  0  0  0
    5.6471   -4.4462    0.0000 O   0  0  0  0  0  0  0  0  0  0  0  0
    8.2452   -5.9462    0.0000 O   0  0  0  0  0  0  0  0  0  0  0  0
    7.6962   -3.8971    0.0000 C   0  0  0  0  0  0  0  0  0  0  0  0
    9.1962   -3.8971    0.0000 C   0  0  0  0  0  0  0  0  0  0  0  0
    9.9462   -2.5981    0.0000 C   0  0  0  0  0  0  0  0  0  0  0  0
    9.1962   -1.2990    0.0000 C   0  0  0  0  0  0  0  0  0  0  0  0
    9.9462    0.0000    0.0000 C   0  0  0  0  0  0  0  0  0  0  0  0
    9.1962    1.2990    0.0000 C   0  0  0  0  0  0  0  0  0  0  0  0
    7.6962    1.2990    0.0000 C   0  0  0  0  0  0  0  0  0  0  0  0
    6.9462    0.0000    0.0000 C   0  0  0  0  0  0  0  0  0  0  0  0
    7.6962   -1.2990    0.0000 C   0  0  0  0  0  0  0  0  0  0  0  0
    6.9462   -2.5981    0.0000 C   0  0  0  0  0  0  0  0  0  0  0  0
  1  2  1  0
  2  3  1  0
  3  4  2  0
  3  5  1  0
  5  6  1  0
  6  7  1  1
  7  8  1  0
  8  9  2  0
  9 10  1  0
 10 11  2  0
 11 12  1  0
 12 13  2  0
  6 14  1  0
 14 15  1  1
 14 16  1  0
 16 17  1  0
 17 18  1  0
 17 19  1  0
  6 20  1  0
 20 21  2  0
 21 22  1  0
 22 23  2  0
 23 24  1  0
 24 25  2  0
 26 27  1  0
 27 28  2  0
 27 29  2  0
 27 30  1  0
 30 31  2  0
 31 32  1  0
 32 33  2  0
 33 34  1  0
 34 35  2  0
 35 36  1  0
 36 37  2  0
 37 38  1  0
 38 39  2  0
 13  8  1  0
 25 20  1  0
 39 30  1  0
 38 33  1  0
M  END
$$$$
1118041
     RDKit          2D

 25 26  0  0  0  0  0  0  0  0999 V2000
   -4.4462   -3.8971    0.0000 C   0  0  0  0  0  0  0  0  0  0  0  0
   -3.1471   -3.1471    0.0000 C   0  0  0  0  0  0  0  0  0  0  0  0
   -1.8481   -3.8971    0.0000 C   0  0  0  0  0  0  0  0  0  0  0  0
   -1.9962   -5.1031    0.0000 O   0  0  0  0  0  0  0  0  0  0  0  0
   -0.5490   -3.1471    0.0000 O   0  0  0  0  0  0  0  0  0  0  0  0
    0.7500   -3.8971    0.0000 C   0  0  0  0  0  0  0  0  0  0  0  0
    1.5000   -2.5981    0.0000 C   0  0  0  0  0  0  0  0  0  0  0  0
    0.7500   -1.2990    0.0000 C   0  0  0  0  0  0  0  0  0  0  0  0
    1.5000    0.0000    0.0000 C   0  0  0  0  0  0  0  0  0  0  0  0
    0.7500    1.2990    0.0000 C   0  0  0  0  0  0  0  0  0  0  0  0
   -0.7500    1.2990    0.0000 C   0  0  0  0  0  0  0  0  0  0  0  0
   -1.5000    0.0000    0.0000 C   0  0  0  0  0  0  0  0  0  0  0  0
   -0.7500   -1.2990    0.0000 C   0  0  0  0  0  0  0  0  0  0  0  0
   -0.0000   -5.1962    0.0000 C   0  0  0  0  0  0  0  0  0  0  0  0
   -1.2059   -5.3443    0.0000 C   0  0  0  0  0  0  0  0  0  0  0  0
    0.7500   -6.4952    0.0000 C   0  0  0  0  0  0  0  0  0  0  0  0
   -0.0000   -7.7942    0.0000 N   0  0  0  0  0  0  0  0  0  0  0  0
    0.7500   -9.0933    0.0000 C   0  0  0  0  0  0  0  0  0  0  0  0
   -1.5000   -7.7942    0.0000 C   0  0  0  0  0  0  0  0  0  0  0  0
    2.0490   -4.6471    0.0000 C   0  0  0  0  0  0  0  0  0  0  0  0
    2.0490   -6.1471    0.0000 C   0  0  0  0  0  0  0  0  0  0  0  0
    3.3481   -6.8971    0.0000 C   0  0  0  0  0  0  0  0  0  0  0  0
    4.6471   -6.1471    0.0000 C   0  0  0  0  0  0  0  0  0  0  0  0
    4.6471   -4.6471    0.0000 C   0  0  0  0  0  0  0  0  0  0  0  0
    3.3481   -3.8971    0.0000 C   0  0  0  0  0  0  0  0  0  0  0  0
  1  2  1  0
  2  3  1  0
  3  4  2  0
  3  5  1  0
  5  6  1  0
  6  7  1  6
  7  8  1  0
  8  9  2  0
  9 10  1  0
 10 11  2  0
 11 12  1  0
 12 13  2  0
  6 14  1  0
 14 15  1  6
 14 16  1  0
 16 17  1  0
 17 18  1  0
 17 19  1  0
  6 20  1  0
 20 21  2  0
 21 22  1  0
 22 23  2  0
 23 24  1  0
 24 25  2  0
 13  8  1  0
 25 20  1  0
M  END
$$$$
1017790
     RDKit          2D

 39 41  0  0  0  0  0  0  0  0999 V2000
   -4.4462   -3.8971    0.0000 C   0  0  0  0  0  0  0  0  0  0  0  0
   -3.1471   -3.1471    0.0000 C   0  0  0  0  0  0  0  0  0  0  0  0
   -1.8481   -3.8971    0.0000 C   0  0  0  0  0  0  0  0  0  0  0  0
   -1.9962   -5.1031    0.0000 O   0  0  0  0  0  0  0  0  0  0  0  0
   -0.5490   -3.1471    0.0000 O   0  0  0  0  0  0  0  0  0  0  0  0
    0.7500   -3.8971    0.0000 C   0  0  0  0  0  0  0  0  0  0  0  0
    1.5000   -2.5981    0.0000 C   0  0  0  0  0  0  0  0  0  0  0  0
    0.7500   -1.2990    0.0000 C   0  0  0  0  0  0  0  0  0  0  0  0
    1.5000    0.0000    0.0000 C   0  0  0  0  0  0  0  0  0  0  0  0
    0.7500    1.2990    0.0000 C   0  0  0  0  0  0  0  0  0  0  0  0
   -0.7500    1.2990    0.0000 C   0  0  0  0  0  0  0  0  0  0  0  0
   -1.5000    0.0000    0.0000 C   0  0  0  0  0  0  0  0  0  0  0  0
   -0.7500   -1.2990    0.0000 C   0  0  0  0  0  0  0  0  0  0  0  0
   -0.0000   -5.1962    0.0000 C   0  0  0  0  0  0  0  0  0  0  0  0
   -1.2059   -5.3443    0.0000 C   0  0  0  0  0  0  0  0  0  0  0  0
    0.7500   -6.4952    0.0000 C   0  0  0  0  0  0  0  0  0  0  0  0
   -0.0000   -7.7942    0.0000 N   0  0  0  0  0  0  0  0  0  0  0  0
    0.7500   -9.0933    0.0000 C   0  0  0  0  0  0  0  0  0  0  0  0
   -1.5000   -7.7942    0.0000 C   0  0  0  0  0  0  0  0  0  0  0  0
    2.0490   -4.6471    0.0000 C   0  0  0  0  0  0  0  0  0  0  0  0
    2.0490   -6.1471    0.0000 C   0  0  0  0  0  0  0  0  0  0  0  0
    3.3481   -6.8971    0.0000 C   0  0  0  0  0  0  0  0  0  0  0  0
    4.6471   -6.1471    0.0000 C   0  0  0  0  0  0  0  0  0  0  0  0
    4.6471   -4.6471    0.0000 C   0  0  0  0  0  0  0  0  0  0  0  0
    3.3481   -3.8971    0.0000 C   0  0  0  0  0  0  0  0  0  0  0  0
    6.1962   -6.4952    0.0000 O   0  0  0  0  0  0  0  0  0  0  0  0
    6.9462   -5.1962    0.0000 S   0  0  0  0  0  0  0  0  0  0  0  0
    5.6471   -4.4462    0.0000 O   0  0  0  0  0  0  0  0  0  0  0  0
    8.2452   -5.9462    0.0000 O   0  0  0  0  0  0  0  0  0  0  0  0
    7.6962   -3.8971    0.0000 C   0  0  0  0  0  0  0  0  0  0  0  0
    9.1962   -3.8971    0.0000 C   0  0  0  0  0  0  0  0  0  0  0  0
    9.9462   -2.5981    0.0000 C   0  0  0  0  0  0  0  0  0  0  0  0
    9.1962   -1.2990    0.0000 C   0  0  0  0  0  0  0  0  0  0  0  0
    9.9462    0.0000    0.0000 C   0  0  0  0  0  0  0  0  0  0  0  0
    9.1962    1.2990    0.0000 C   0  0  0  0  0  0  0  0  0  0  0  0
    7.6962    1.2990    0.0000 C   0  0  0  0  0  0  0  0  0  0  0  0
    6.9462    0.0000    0.0000 C   0  0  0  0  0  0  0  0  0  0  0  0
    7.6962   -1.2990    0.0000 C   0  0  0  0  0  0  0  0  0  0  0  0
    6.9462   -2.5981    0.0000 C   0  0  0  0  0  0  0  0  0  0  0  0
  1  2  1  0
  2  3  1  0
  3  4  2  0
  3  5  1  0
  5  6  1  0
  6  7  1  6
  7  8  1  0
  8  9  2  0
  9 10  1  0
 10 11  2  0
 11 12  1  0
 12 13  2  0
  6 14  1  0
 14 15  1  6
 14 16  1  0
 16 17  1  0
 17 18  1  0
 17 19  1  0
  6 20  1  0
 20 21  2  0
 21 22  1  0
 22 23  2  0
 23 24  1  0
 24 25  2  0
 26 27  1  0
 27 28  2  0
 27 29  2  0
 27 30  1  0
 30 31  2  0
 31 32  1  0
 32 33  2  0
 33 34  1  0
 34 35  2  0
 35 36  1  0
 36 37  2  0
 37 38  1  0
 38 39  2  0
 13  8  1  0
 25 20  1  0
 39 30  1  0
 38 33  1  0
M  END
$$$$
138562
     RDKit          2D

 30 32  0  0  0  0  0  0  0  0999 V2000
    7.5000   -2.5981    0.0000 C   0  0  0  0  0  0  0  0  0  0  0  0
    6.7500   -1.2990    0.0000 C   0  0  0  0  0  0  0  0  0  0  0  0
    5.2500   -1.2990    0.0000 C   0  0  0  0  0  0  0  0  0  0  0  0
    5.2500   -2.7990    0.0000 C   0  0  0  0  0  0  0  0  0  0  0  0
    5.2500    0.2010    0.0000 C   0  0  0  0  0  0  0  0  0  0  0  0
    3.7500   -1.2990    0.0000 C   0  0  0  0  0  0  0  0  0  0  0  0
    3.0000   -2.5981    0.0000 O   0  0  0  0  0  0  0  0  0  0  0  0
    3.0000    0.0000    0.0000 O   0  0  0  0  0  0  0  0  0  0  0  0
    1.5000    0.0000    0.0000 C   0  0  0  0  0  0  0  0  0  0  0  0
    0.7500   -1.2990    0.0000 C   0  0  0  0  0  0  0  0  0  0  0  0
   -0.7500   -1.2990    0.0000 C   0  0  0  0  0  0  0  0  0  0  0  0
   -1.5000   -2.5981    0.0000 C   0  0  0  0  0  0  0  0  0  0  0  0
   -1.5000    0.0000    0.0000 C   0  0  0  0  0  0  0  0  0  0  0  0
   -0.7500    1.2990    0.0000 C   0  0  0  0  0  0  0  0  0  0  0  0
   -1.5000    2.5981    0.0000 C   0  0  0  0  0  0  0  0  0  0  0  0
   -0.7500    3.8971    0.0000 C   0  0  0  0  0  0  0  0  0  0  0  0
    0.7500    3.8971    0.0000 C   0  0  0  0  0  0  0  0  0  0  0  0
    1.5000    5.1962    0.0000 C   0  0  0  0  0  0  0  0  0  0  0  0
    1.5000    2.5981    0.0000 C   0  0  0  0  0  0  0  0  0  0  0  0
    3.0000    2.5981    0.0000 C   0  0  0  0  0  0  0  0  0  0  0  0
    3.7500    1.2990    0.0000 C   0  0  0  0  0  0  0  0  0  0  0  0
    5.2500    1.2990    0.0000 C   0  0  0  0  0  0  0  0  0  0  0  0
    6.0000   -0.0000    0.0000 C   0  0  0  0  0  0  0  0  0  0  0  0
    7.5000   -0.0000    0.0000 C   0  0  0  0  0  0  0  0  0  0  0  0
    8.2500   -1.2990    0.0000 O   0  0  0  0  0  0  0  0  0  0  0  0
    8.2500    1.2990    0.0000 C   0  0  0  0  0  0  0  0  0  0  0  0
    7.5000    2.5981    0.0000 C   0  0  0  0  0  0  0  0  0  0  0  0
    8.2500    3.8971    0.0000 O   0  0  0  0  0  0  0  0  0  0  0  0
    6.0000    2.5981    0.0000 O   0  0  0  0  0  0  0  0  0  0  0  0
    0.7500    1.2990    0.0000 C   0  0  0  0  0  0  0  0  0  0  0  0
  1  2  1  0
  2  3  1  0
  3  4  1  0
  3  5  1  0
  3  6  1  0
  6  7  2  0
  6  8  1  0
  9  8  1  1
  9 10  1  0
 10 11  1  0
 11 12  1  1
 11 13  1  0
 13 14  2  0
 14 15  1  0
 15 16  2  0
 16 17  1  0
 17 18  1  6
 17 19  1  0
 19 20  1  6
 20 21  1  0
 22 21  1  1
 22 23  1  0
 23 24  1  0
 24 25  1  6
 24 26  1  0
 26 27  1  0
 27 28  2  0
 27 29  1  0
 19 30  1  0
 30  9  1  0
 30 14  1  1
 29 22  1  0
M  END
$$$$
674873
     RDKit          2D

 16 15  0  0  0  0  0  0  0  0999 V2000
    0.0000    0.0000    0.0000 C   0  0  0  0  0  0  0  0  0  0  0  0
    1.2990    0.7500    0.0000 C   0  0  0  0  0  0  0  0  0  0  0  0
    2.5981   -0.0000    0.0000 C   0  0  0  0  0  0  0  0  0  0  0  0
    3.8971    0.7500    0.0000 C   0  0  0  0  0  0  0  0  0  0  0  0
    2.5981   -1.5000    0.0000 C   0  0  0  0  0  0  0  0  0  0  0  0
    2.5981   -3.0000    0.0000 C   0  0  0  0  0  0  0  0  0  0  0  0
    1.0981   -1.5000    0.0000 C   0  0  0  0  0  0  0  0  0  0  0  0
    0.3481   -2.7990    0.0000 O   0  0  0  0  0  0  0  0  0  0  0  0
   -1.1519   -2.7990    0.0000 C   0  0  0  0  0  0  0  0  0  0  0  0
   -1.9019   -1.5000    0.0000 O   0  0  0  0  0  0  0  0  0  0  0  0
   -1.9019   -4.0981    0.0000 N   0  0  0  0  0  0  0  0  0  0  0  0
    4.0981   -1.5000    0.0000 C   0  0  0  0  0  0  0  0  0  0  0  0
    4.8481   -2.7990    0.0000 O   0  0  0  0  0  0  0  0  0  0  0  0
    6.3481   -2.7990    0.0000 C   0  0  0  0  0  0  0  0  0  0  0  0
    7.0981   -1.5000    0.0000 O   0  0  0  0  0  0  0  0  0  0  0  0
    7.0981   -4.0981    0.0000 N   0  0  0  0  0  0  0  0  0  0  0  0
  1  2  1  0
  2  3  1  0
  3  4  1  0
  3  5  1  0
  5  6  1  0
  5  7  1  0
  7  8  1  0
  8  9  1  0
  9 10  2  0
  9 11  1  0
  5 12  1  0
 12 13  1  0
 13 14  1  0
 14 15  2  0
 14 16  1  0
M  END
$$$$
2393
     RDKit          2D

 15 15  0  0  0  0  0  0  0  0999 V2000
    5.2077   -1.4153    0.0000 C   0  0  0  0  0  0  0  0  0  0  0  0
    4.0586   -0.4512    0.0000 C   0  0  0  0  0  0  0  0  0  0  0  0
    2.6491   -0.9642    0.0000 C   0  0  0  0  0  0  0  0  0  0  0  0
    2.3886   -2.4414    0.0000 C   0  0  0  0  0  0  0  0  0  0  0  0
    1.5000    0.0000    0.0000 C   0  0  0  0  0  0  0  0  0  0  0  0
    2.6491    0.9642    0.0000 C   0  0  0  0  0  0  0  0  0  0  0  0
    4.0586    0.4512    0.0000 C   0  0  0  0  0  0  0  0  0  0  0  0
    0.7500   -1.2990    0.0000 C   0  0  0  0  0  0  0  0  0  0  0  0
    1.5000   -2.5981    0.0000 O   0  0  0  0  0  0  0  0  0  0  0  0
   -0.7500   -1.2990    0.0000 N   0  0  0  0  0  0  0  0  0  0  0  0
   -1.5000    0.0000    0.0000 C   0  0  0  0  0  0  0  0  0  0  0  0
   -3.0000    0.0000    0.0000 O   0  0  0  0  0  0  0  0  0  0  0  0
   -0.7500    1.2990    0.0000 N   0  0  0  0  0  0  0  0  0  0  0  0
    0.7500    1.2990    0.0000 C   0  0  0  0  0  0  0  0  0  0  0  0
    1.5000    2.5981    0.0000 O   0  0  0  0  0  0  0  0  0  0  0  0
  1  2  1  0
  2  3  1  0
  3  4  1  0
  3  5  1  0
  5  6  1  0
  6  7  1  0
  5  8  1  0
  8  9  2  0
  8 10  1  0
 10 11  1  0
 11 12  2  0
 11 13  1  0
 13 14  1  0
 14 15  2  0
 14  5  1  0
M  END
$$$$
674753
     RDKit          2D

 16 16  0  0  0  0  0  0  0  0999 V2000
    5.2077   -1.4153    0.0000 C   0  0  0  0  0  0  0  0  0  0  0  0
    4.0586   -0.4512    0.0000 C   0  0  0  0  0  0  0  0  0  0  0  0
    2.6491   -0.9642    0.0000 C   0  0  0  0  0  0  0  0  0  0  0  0
    2.3886   -2.4414    0.0000 C   0  0  0  0  0  0  0  0  0  0  0  0
    1.5000    0.0000    0.0000 C   0  0  0  0  0  0  0  0  0  0  0  0
    2.6491    0.9642    0.0000 C   0  0  0  0  0  0  0  0  0  0  0  0
    4.0586    0.4512    0.0000 C   0  0  0  0  0  0  0  0  0  0  0  0
    5.2077    1.4153    0.0000 C   0  0  0  0  0  0  0  0  0  0  0  0
    0.7500   -1.2990    0.0000 C   0  0  0  0  0  0  0  0  0  0  0  0
    1.5000   -2.5981    0.0000 O   0  0  0  0  0  0  0  0  0  0  0  0
   -0.7500   -1.2990    0.0000 N   0  0  0  0  0  0  0  0  0  0  0  0
   -1.5000    0.0000    0.0000 C   0  0  0  0  0  0  0  0  0  0  0  0
   -3.0000    0.0000    0.0000 O   0  0  0  0  0  0  0  0  0  0  0  0
   -0.7500    1.2990    0.0000 N   0  0  0  0  0  0  0  0  0  0  0  0
    0.7500    1.2990    0.0000 C   0  0  0  0  0  0  0  0  0  0  0  0
    1.5000    2.5981    0.0000 O   0  0  0  0  0  0  0  0  0  0  0  0
  1  2  1  0
  2  3  1  0
  3  4  1  0
  3  5  1  0
  5  6  1  0
  6  7  1  0
  7  8  2  0
  5  9  1  0
  9 10  2  0
  9 11  1  0
 11 12  1  0
 12 13  2  0
 12 14  1  0
 14 15  1  0
 15 16  2  0
 15  5  1  0
M  END
$$$$
27986
     RDKit          2D

 49 55  0  0  0  0  0  0  0  0999 V2000
    2.9046   -8.8373    0.0000 C   0  0  0  0  0  0  0  0  0  0  0  0
    3.0613   -7.3456    0.0000 C   0  0  0  0  0  0  0  0  0  0  0  0
    1.8478   -6.4639    0.0000 C   0  0  0  0  0  0  0  0  0  0  0  0
    0.4775   -7.0740    0.0000 C   0  0  0  0  0  0  0  0  0  0  0  0
    2.0046   -4.9721    0.0000 N   0  0  0  0  0  0  0  0  0  0  0  0
    3.3037   -4.2221    0.0000 N   0  0  0  0  0  0  0  0  0  0  0  0
    2.9918   -2.7549    0.0000 C   0  0  0  0  0  0  0  0  0  0  0  0
    1.5000   -2.5981    0.0000 N   0  0  0  0  0  0  0  0  0  0  0  0
    0.8899   -3.9684    0.0000 C   0  0  0  0  0  0  0  0  0  0  0  0
   -0.5773   -4.2803    0.0000 O   0  0  0  0  0  0  0  0  0  0  0  0
    0.7500   -1.2990    0.0000 C   0  0  0  0  0  0  0  0  0  0  0  0
    1.5000    0.0000    0.0000 C   0  0  0  0  0  0  0  0  0  0  0  0
    0.7500    1.2990    0.0000 C   0  0  0  0  0  0  0  0  0  0  0  0
   -0.7500    1.2990    0.0000 C   0  0  0  0  0  0  0  0  0  0  0  0
   -1.5000    0.0000    0.0000 C   0  0  0  0  0  0  0  0  0  0  0  0
   -0.7500   -1.2990    0.0000 C   0  0  0  0  0  0  0  0  0  0  0  0
   -1.5000    2.5981    0.0000 N   0  0  0  0  0  0  0  0  0  0  0  0
   -0.7500    3.8971    0.0000 C   0  0  0  0  0  0  0  0  0  0  0  0
   -1.5000    5.1962    0.0000 C   0  0  0  0  0  0  0  0  0  0  0  0
   -3.0000    5.1962    0.0000 N   0  0  0  0  0  0  0  0  0  0  0  0
   -3.7500    3.8971    0.0000 C   0  0  0  0  0  0  0  0  0  0  0  0
   -3.0000    2.5981    0.0000 C   0  0  0  0  0  0  0  0  0  0  0  0
   -3.7500    6.4952    0.0000 C   0  0  0  0  0  0  0  0  0  0  0  0
   -3.0000    7.7942    0.0000 C   0  0  0  0  0  0  0  0  0  0  0  0
   -3.7500    9.0933    0.0000 C   0  0  0  0  0  0  0  0  0  0  0  0
   -5.2500    9.0933    0.0000 C   0  0  0  0  0  0  0  0  0  0  0  0
   -6.0000   10.3923    0.0000 O   0  0  0  0  0  0  0  0  0  0  0  0
   -5.2500   11.6913    0.0000 C   0  0  0  0  0  0  0  0  0  0  0  0
   -6.0000   12.9904    0.0000 C   0  0  0  0  0  0  0  0  0  0  0  0
   -7.4918   13.1472    0.0000 C   0  0  0  0  0  0  0  0  0  0  0  0
   -7.8037   14.6144    0.0000 O   0  0  0  0  0  0  0  0  0  0  0  0
   -6.5046   15.3644    0.0000 C   0  0  0  0  0  0  0  0  0  0  0  0
   -5.3899   16.3681    0.0000 C   0  0  0  0  0  0  0  0  0  0  0  0
   -3.9633   15.9046    0.0000 N   0  0  0  0  0  0  0  0  0  0  0  0
   -2.7498   16.7862    0.0000 C   0  0  0  0  0  0  0  0  0  0  0  0
   -1.5363   15.9046    0.0000 N   0  0  0  0  0  0  0  0  0  0  0  0
   -1.9998   14.4780    0.0000 C   0  0  0  0  0  0  0  0  0  0  0  0
   -3.4998   14.4780    0.0000 N   0  0  0  0  0  0  0  0  0  0  0  0
   -5.3899   14.3607    0.0000 O   0  0  0  0  0  0  0  0  0  0  0  0
   -7.3863   16.5779    0.0000 C   0  0  0  0  0  0  0  0  0  0  0  0
   -6.7762   17.9482    0.0000 C   0  0  0  0  0  0  0  0  0  0  0  0
   -7.6579   19.1618    0.0000 C   0  0  0  0  0  0  0  0  0  0  0  0
   -9.1496   19.0050    0.0000 C   0  0  0  0  0  0  0  0  0  0  0  0
  -10.0313   20.2185    0.0000 Cl  0  0  0  0  0  0  0  0  0  0  0  0
   -9.7598   17.6347    0.0000 C   0  0  0  0  0  0  0  0  0  0  0  0
   -8.8781   16.4211    0.0000 C   0  0  0  0  0  0  0  0  0  0  0  0
   -9.4882   15.0508    0.0000 Cl  0  0  0  0  0  0  0  0  0  0  0  0
   -6.0000    7.7942    0.0000 C   0  0  0  0  0  0  0  0  0  0  0  0
   -5.2500    6.4952    0.0000 C   0  0  0  0  0  0  0  0  0  0  0  0
  1  2  1  0
  2  3  1  0
  3  4  1  0
  3  5  1  0
  5  6  1  0
  6  7  2  0
  7  8  1  0
  8  9  1  0
  9 10  2  0
  8 11  1  0
 11 12  2  0
 12 13  1  0
 13 14  2  0
 14 15  1  0
 15 16  2  0
 14 17  1  0
 17 18  1  0
 18 19  1  0
 19 20  1  0
 20 21  1  0
 21 22  1  0
 20 23  1  0
 23 24  2  0
 24 25  1  0
 25 26  2  0
 26 27  1  0
 27 28  1  0
 29 28  1  1
 29 30  1  0
 30 31  1  0
 31 32  1  0
 32 33  1  1
 33 34  1  0
 34 35  1  0
 35 36  2  0
 36 37  1  0
 37 38  2  0
 32 39  1  0
 32 40  1  0
 40 41  2  0
 41 42  1  0
 42 43  2  0
 43 44  1  0
 43 45  1  0
 45 46  2  0
 46 47  1  0
 26 48  1  0
 48 49  2  0
  9  5  1  0
 16 11  1  0
 22 17  1  0
 49 23  1  0
 39 29  1  0
 38 34  1  0
 46 40  1  0
M  END
$$$$
1510461
     RDKit          2D

190211  0  0  0  0  0  0  0  0999 V2000
   -0.3848    6.3624    0.0000 C   0  0  0  0  0  0  0  0  0  0  0  0
   -1.8520    6.6743    0.0000 C   0  0  0  0  0  0  0  0  0  0  0  0
   -2.3156    8.1009    0.0000 C   0  0  0  0  0  0  0  0  0  0  0  0
   -1.3119    9.2156    0.0000 C   0  0  0  0  0  0  0  0  0  0  0  0
   -3.7828    8.4128    0.0000 C   0  0  0  0  0  0  0  0  0  0  0  0
   -4.7865    7.2980    0.0000 N   0  0  0  0  0  0  0  0  0  0  0  0
   -4.6297    5.8063    0.0000 C   0  0  0  0  0  0  0  0  0  0  0  0
   -3.3306    5.0563    0.0000 O   0  0  0  0  0  0  0  0  0  0  0  0
   -6.0000    5.1962    0.0000 C   0  0  0  0  0  0  0  0  0  0  0  0
   -5.2500    3.8971    0.0000 N   0  0  0  0  0  0  0  0  0  0  0  0
   -6.0000    2.5981    0.0000 C   0  0  0  0  0  0  0  0  0  0  0  0
   -6.9768    2.4781    0.0000 O   0  0  0  0  0  0  0  0  0  0  0  0
   -5.2500    1.2990    0.0000 C   0  0  0  0  0  0  0  0  0  0  0  0
   -3.7500    1.2990    0.0000 C   0  0  0  0  0  0  0  0  0  0  0  0
   -3.0000   -0.0000    0.0000 C   0  0  0  0  0  0  0  0  0  0  0  0
   -3.7500   -1.2990    0.0000 C   0  0  0  0  0  0  0  0  0  0  0  0
   -3.0000   -2.5981    0.0000 C   0  0  0  0  0  0  0  0  0  0  0  0
   -1.5000   -2.5981    0.0000 C   0  0  0  0  0  0  0  0  0  0  0  0
   -0.3853   -3.6018    0.0000 C   0  0  0  0  0  0  0  0  0  0  0  0
    0.9138   -2.8518    0.0000 N   0  0  0  0  0  0  0  0  0  0  0  0
    0.7500   -1.2990    0.0000 C   0  0  0  0  0  0  0  0  0  0  0  0
    1.5000   -0.0000    0.0000 C   0  0  0  0  0  0  0  0  0  0  0  0
    0.7500    1.2990    0.0000 C   0  0  0  0  0  0  0  0  0  0  0  0
   -0.7500    1.2990    0.0000 C   0  0  0  0  0  0  0  0  0  0  0  0
   -1.5000   -0.0000    0.0000 C   0  0  0  0  0  0  0  0  0  0  0  0
   -0.7500   -1.2990    0.0000 C   0  0  0  0  0  0  0  0  0  0  0  0
   -5.2500   -1.2990    0.0000 N   0  0  0  0  0  0  0  0  0  0  0  0
   -6.0000   -2.5981    0.0000 C   0  0  0  0  0  0  0  0  0  0  0  0
   -6.0000    0.0000    0.0000 C   0  0  0  0  0  0  0  0  0  0  0  0
   -7.0037    6.3109    0.0000 O   0  0  0  0  0  0  0  0  0  0  0  0
   -6.2537    7.6099    0.0000 C   0  0  0  0  0  0  0  0  0  0  0  0
   -7.7455    7.7667    0.0000 O   0  0  0  0  0  0  0  0  0  0  0  0
   -6.7172    9.0365    0.0000 C   0  0  0  0  0  0  0  0  0  0  0  0
   -8.0875    9.6466    0.0000 C   0  0  0  0  0  0  0  0  0  0  0  0
   -7.9307   11.1384    0.0000 C   0  0  0  0  0  0  0  0  0  0  0  0
   -6.4635   11.4502    0.0000 C   0  0  0  0  0  0  0  0  0  0  0  0
   -5.7135   10.1512    0.0000 N   0  0  0  0  0  0  0  0  0  0  0  0
   -4.2463    9.8393    0.0000 C   0  0  0  0  0  0  0  0  0  0  0  0
   -3.2426   10.9541    0.0000 O   0  0  0  0  0  0  0  0  0  0  0  0
   -7.2135    4.3145    0.0000 C   0  0  0  0  0  0  0  0  0  0  0  0
   -7.2307    3.3305    0.0000 C   0  0  0  0  0  0  0  0  0  0  0  0
   -8.5838    4.9246    0.0000 C   0  0  0  0  0  0  0  0  0  0  0  0
   11.2392    8.9037    0.0000 C   0  0  0  0  0  0  0  0  0  0  0  0
    9.7720    9.2156    0.0000 C   0  0  0  0  0  0  0  0  0  0  0  0
    9.3085   10.6422    0.0000 C   0  0  0  0  0  0  0  0  0  0  0  0
    8.7683    8.1009    0.0000 C   0  0  0  0  0  0  0  0  0  0  0  0
    7.3011    8.4128    0.0000 C   0  0  0  0  0  0  0  0  0  0  0  0
    6.2974    7.2980    0.0000 N   0  0  0  0  0  0  0  0  0  0  0  0
    6.4542    5.8063    0.0000 C   0  0  0  0  0  0  0  0  0  0  0  0
    7.7532    5.0563    0.0000 O   0  0  0  0  0  0  0  0  0  0  0  0
    5.0838    5.1962    0.0000 C   0  0  0  0  0  0  0  0  0  0  0  0
    5.8338    3.8971    0.0000 N   0  0  0  0  0  0  0  0  0  0  0  0
    5.0838    2.5981    0.0000 C   0  0  0  0  0  0  0  0  0  0  0  0
    4.1070    2.4781    0.0000 O   0  0  0  0  0  0  0  0  0  0  0  0
    5.8338    1.2990    0.0000 C   0  0  0  0  0  0  0  0  0  0  0  0
    7.3338    1.2990    0.0000 C   0  0  0  0  0  0  0  0  0  0  0  0
    8.0838   -0.0000    0.0000 C   0  0  0  0  0  0  0  0  0  0  0  0
    7.3338   -1.2990    0.0000 C   0  0  0  0  0  0  0  0  0  0  0  0
    8.0838   -2.5981    0.0000 C   0  0  0  0  0  0  0  0  0  0  0  0
    9.5838   -2.5981    0.0000 C   0  0  0  0  0  0  0  0  0  0  0  0
   10.6986   -3.6018    0.0000 C   0  0  0  0  0  0  0  0  0  0  0  0
   11.9976   -2.8518    0.0000 N   0  0  0  0  0  0  0  0  0  0  0  0
   11.8338   -1.2990    0.0000 C   0  0  0  0  0  0  0  0  0  0  0  0
   12.5838   -0.0000    0.0000 C   0  0  0  0  0  0  0  0  0  0  0  0
   11.8338    1.2990    0.0000 C   0  0  0  0  0  0  0  0  0  0  0  0
   10.3338    1.2990    0.0000 C   0  0  0  0  0  0  0  0  0  0  0  0
    9.5838   -0.0000    0.0000 C   0  0  0  0  0  0  0  0  0  0  0  0
   10.3338   -1.2990    0.0000 C   0  0  0  0  0  0  0  0  0  0  0  0
    5.8338   -1.2990    0.0000 N   0  0  0  0  0  0  0  0  0  0  0  0
    5.0838   -2.5981    0.0000 C   0  0  0  0  0  0  0  0  0  0  0  0
    5.0838    0.0000    0.0000 C   0  0  0  0  0  0  0  0  0  0  0  0
    4.0801    6.3109    0.0000 O   0  0  0  0  0  0  0  0  0  0  0  0
    4.8301    7.6099    0.0000 C   0  0  0  0  0  0  0  0  0  0  0  0
    3.3384    7.7667    0.0000 O   0  0  0  0  0  0  0  0  0  0  0  0
    4.3666    9.0365    0.0000 C   0  0  0  0  0  0  0  0  0  0  0  0
    2.9963    9.6466    0.0000 C   0  0  0  0  0  0  0  0  0  0  0  0
    3.1531   11.1384    0.0000 C   0  0  0  0  0  0  0  0  0  0  0  0
    4.6203   11.4502    0.0000 C   0  0  0  0  0  0  0  0  0  0  0  0
    5.3703   10.1512    0.0000 N   0  0  0  0  0  0  0  0  0  0  0  0
    6.8375    9.8393    0.0000 C   0  0  0  0  0  0  0  0  0  0  0  0
    7.8412   10.9541    0.0000 O   0  0  0  0  0  0  0  0  0  0  0  0
    3.8703    4.3145    0.0000 C   0  0  0  0  0  0  0  0  0  0  0  0
    3.8531    3.3305    0.0000 C   0  0  0  0  0  0  0  0  0  0  0  0
    2.5000    4.9246    0.0000 C   0  0  0  0  0  0  0  0  0  0  0  0
   -1.3119   25.2676    0.0000 C   0  0  0  0  0  0  0  0  0  0  0  0
   -2.3156   24.1529    0.0000 C   0  0  0  0  0  0  0  0  0  0  0  0
   -1.8520   22.7263    0.0000 C   0  0  0  0  0  0  0  0  0  0  0  0
   -3.7828   24.4648    0.0000 C   0  0  0  0  0  0  0  0  0  0  0  0
   -4.7865   23.3501    0.0000 N   0  0  0  0  0  0  0  0  0  0  0  0
   -4.6297   21.8583    0.0000 C   0  0  0  0  0  0  0  0  0  0  0  0
   -3.3306   21.1083    0.0000 O   0  0  0  0  0  0  0  0  0  0  0  0
   -6.0000   21.2482    0.0000 C   0  0  0  0  0  0  0  0  0  0  0  0
   -5.2500   19.9491    0.0000 N   0  0  0  0  0  0  0  0  0  0  0  0
   -6.0000   18.6501    0.0000 C   0  0  0  0  0  0  0  0  0  0  0  0
   -6.9768   18.5301    0.0000 O   0  0  0  0  0  0  0  0  0  0  0  0
   -5.2500   17.3511    0.0000 C   0  0  0  0  0  0  0  0  0  0  0  0
   -3.7500   17.3511    0.0000 C   0  0  0  0  0  0  0  0  0  0  0  0
   -3.0000   16.0520    0.0000 C   0  0  0  0  0  0  0  0  0  0  0  0
   -3.7500   14.7530    0.0000 C   0  0  0  0  0  0  0  0  0  0  0  0
   -3.0000   13.4539    0.0000 C   0  0  0  0  0  0  0  0  0  0  0  0
   -1.5000   13.4539    0.0000 C   0  0  0  0  0  0  0  0  0  0  0  0
   -0.3853   12.4502    0.0000 C   0  0  0  0  0  0  0  0  0  0  0  0
    0.9138   13.2002    0.0000 N   0  0  0  0  0  0  0  0  0  0  0  0
    0.7500   14.7530    0.0000 C   0  0  0  0  0  0  0  0  0  0  0  0
    1.5000   16.0520    0.0000 C   0  0  0  0  0  0  0  0  0  0  0  0
    0.7500   17.3511    0.0000 C   0  0  0  0  0  0  0  0  0  0  0  0
   -0.7500   17.3511    0.0000 C   0  0  0  0  0  0  0  0  0  0  0  0
   -1.5000   16.0520    0.0000 C   0  0  0  0  0  0  0  0  0  0  0  0
   -0.7500   14.7530    0.0000 C   0  0  0  0  0  0  0  0  0  0  0  0
   -5.2500   14.7530    0.0000 N   0  0  0  0  0  0  0  0  0  0  0  0
   -6.0000   13.4539    0.0000 C   0  0  0  0  0  0  0  0  0  0  0  0
   -6.0000   16.0520    0.0000 C   0  0  0  0  0  0  0  0  0  0  0  0
   -7.0037   22.3629    0.0000 O   0  0  0  0  0  0  0  0  0  0  0  0
   -6.2537   23.6619    0.0000 C   0  0  0  0  0  0  0  0  0  0  0  0
   -7.7455   23.8187    0.0000 O   0  0  0  0  0  0  0  0  0  0  0  0
   -6.7172   25.0885    0.0000 C   0  0  0  0  0  0  0  0  0  0  0  0
   -8.0875   25.6986    0.0000 C   0  0  0  0  0  0  0  0  0  0  0  0
   -7.9307   27.1904    0.0000 C   0  0  0  0  0  0  0  0  0  0  0  0
   -6.4635   27.5023    0.0000 C   0  0  0  0  0  0  0  0  0  0  0  0
   -5.7135   26.2032    0.0000 N   0  0  0  0  0  0  0  0  0  0  0  0
   -4.2463   25.8914    0.0000 C   0  0  0  0  0  0  0  0  0  0  0  0
   -3.2426   27.0061    0.0000 O   0  0  0  0  0  0  0  0  0  0  0  0
   -7.2135   20.3665    0.0000 C   0  0  0  0  0  0  0  0  0  0  0  0
   -7.2307   19.3825    0.0000 C   0  0  0  0  0  0  0  0  0  0  0  0
   -8.5838   20.9766    0.0000 C   0  0  0  0  0  0  0  0  0  0  0  0
   13.5838    4.9246    0.0000 C   0  0  0  0  0  0  0  0  0  0  0  0
   14.9542    4.3145    0.0000 C   0  0  0  0  0  0  0  0  0  0  0  0
   14.9370    3.3305    0.0000 C   0  0  0  0  0  0  0  0  0  0  0  0
   16.1677    5.1962    0.0000 C   0  0  0  0  0  0  0  0  0  0  0  0
   16.9177    3.8971    0.0000 N   0  0  0  0  0  0  0  0  0  0  0  0
   16.1677    2.5981    0.0000 C   0  0  0  0  0  0  0  0  0  0  0  0
   15.1909    2.4781    0.0000 O   0  0  0  0  0  0  0  0  0  0  0  0
   16.9177    1.2990    0.0000 C   0  0  0  0  0  0  0  0  0  0  0  0
   18.4177    1.2990    0.0000 C   0  0  0  0  0  0  0  0  0  0  0  0
   19.1677   -0.0000    0.0000 C   0  0  0  0  0  0  0  0  0  0  0  0
   18.4177   -1.2990    0.0000 C   0  0  0  0  0  0  0  0  0  0  0  0
   19.1677   -2.5981    0.0000 C   0  0  0  0  0  0  0  0  0  0  0  0
   20.6677   -2.5981    0.0000 C   0  0  0  0  0  0  0  0  0  0  0  0
   21.7824   -3.6018    0.0000 C   0  0  0  0  0  0  0  0  0  0  0  0
   23.0814   -2.8518    0.0000 N   0  0  0  0  0  0  0  0  0  0  0  0
   22.9177   -1.2990    0.0000 C   0  0  0  0  0  0  0  0  0  0  0  0
   23.6677   -0.0000    0.0000 C   0  0  0  0  0  0  0  0  0  0  0  0
   22.9177    1.2990    0.0000 C   0  0  0  0  0  0  0  0  0  0  0  0
   21.4177    1.2990    0.0000 C   0  0  0  0  0  0  0  0  0  0  0  0
   20.6677   -0.0000    0.0000 C   0  0  0  0  0  0  0  0  0  0  0  0
   21.4177   -1.2990    0.0000 C   0  0  0  0  0  0  0  0  0  0  0  0
   16.9177   -1.2990    0.0000 N   0  0  0  0  0  0  0  0  0  0  0  0
   16.1677   -2.5981    0.0000 C   0  0  0  0  0  0  0  0  0  0  0  0
   16.1677    0.0000    0.0000 C   0  0  0  0  0  0  0  0  0  0  0  0
   15.1640    6.3109    0.0000 O   0  0  0  0  0  0  0  0  0  0  0  0
   15.9140    7.6099    0.0000 C   0  0  0  0  0  0  0  0  0  0  0  0
   14.4222    7.7667    0.0000 O   0  0  0  0  0  0  0  0  0  0  0  0
   15.4505    9.0365    0.0000 C   0  0  0  0  0  0  0  0  0  0  0  0
   14.0801    9.6466    0.0000 C   0  0  0  0  0  0  0  0  0  0  0  0
   14.2369   11.1384    0.0000 C   0  0  0  0  0  0  0  0  0  0  0  0
   15.7042   11.4502    0.0000 C   0  0  0  0  0  0  0  0  0  0  0  0
   16.4542   10.1512    0.0000 N   0  0  0  0  0  0  0  0  0  0  0  0
   17.9214    9.8393    0.0000 C   0  0  0  0  0  0  0  0  0  0  0  0
   18.9251   10.9541    0.0000 O   0  0  0  0  0  0  0  0  0  0  0  0
   18.3849    8.4128    0.0000 C   0  0  0  0  0  0  0  0  0  0  0  0
   19.8521    8.1009    0.0000 C   0  0  0  0  0  0  0  0  0  0  0  0
   20.3157    6.6743    0.0000 C   0  0  0  0  0  0  0  0  0  0  0  0
   19.3120    5.5596    0.0000 C   0  0  0  0  0  0  0  0  0  0  0  0
   19.7755    4.1330    0.0000 C   0  0  0  0  0  0  0  0  0  0  0  0
   21.2427    3.8211    0.0000 C   0  0  0  0  0  0  0  0  0  0  0  0
   22.2464    4.9359    0.0000 C   0  0  0  0  0  0  0  0  0  0  0  0
   21.7829    6.3624    0.0000 C   0  0  0  0  0  0  0  0  0  0  0  0
   17.3812    7.2980    0.0000 N   0  0  0  0  0  0  0  0  0  0  0  0
   17.5380    5.8063    0.0000 C   0  0  0  0  0  0  0  0  0  0  0  0
   18.6170    4.7642    0.0000 O   0  0  0  0  0  0  0  0  0  0  0  0
    0.0000   29.0513    0.0000 C   0  0  0  0  0  0  0  0  0  0  0  0
    1.2990   29.8013    0.0000 S   0  0  0  0  0  0  0  0  0  0  0  0
    2.0490   28.5023    0.0000 O   0  0  0  0  0  0  0  0  0  0  0  0
    0.5490   31.1003    0.0000 O   0  0  0  0  0  0  0  0  0  0  0  0
    2.5981   30.5513    0.0000 O   0  0  0  0  0  0  0  0  0  0  0  0
   24.6677    0.0000    0.0000 C   0  0  0  0  0  0  0  0  0  0  0  0
   25.9667    0.7500    0.0000 S   0  0  0  0  0  0  0  0  0  0  0  0
   26.7167   -0.5490    0.0000 O   0  0  0  0  0  0  0  0  0  0  0  0
   25.2167    2.0490    0.0000 O   0  0  0  0  0  0  0  0  0  0  0  0
   27.2658    1.5000    0.0000 O   0  0  0  0  0  0  0  0  0  0  0  0
    0.0000   32.6494    0.0000 C   0  0  0  0  0  0  0  0  0  0  0  0
    1.2990   33.3994    0.0000 S   0  0  0  0  0  0  0  0  0  0  0  0
    2.0490   32.1003    0.0000 O   0  0  0  0  0  0  0  0  0  0  0  0
    0.5490   34.6984    0.0000 O   0  0  0  0  0  0  0  0  0  0  0  0
    2.5981   34.1494    0.0000 O   0  0  0  0  0  0  0  0  0  0  0  0
   28.2658    0.0000    0.0000 C   0  0  0  0  0  0  0  0  0  0  0  0
   29.5648    0.7500    0.0000 S   0  0  0  0  0  0  0  0  0  0  0  0
   30.3148   -0.5490    0.0000 O   0  0  0  0  0  0  0  0  0  0  0  0
   28.8148    2.0490    0.0000 O   0  0  0  0  0  0  0  0  0  0  0  0
   30.8638    1.5000    0.0000 O   0  0  0  0  0  0  0  0  0  0  0  0
  1  2  1  0
  2  3  1  0
  3  4  1  0
  5  3  1  6
  5  6  1  0
  6  7  1  0
  7  8  2  0
  7  9  1  0
  9 10  1  6
 10 11  1  0
 11 12  2  0
 13 11  1  6
 13 14  1  0
 15 14  1  6
 15 16  1  0
 16 17  1  1
 17 18  1  0
 18 19  2  0
 19 20  1  0
 20 21  1  0
 21 22  2  0
 22 23  1  0
 23 24  2  0
 24 25  1  0
 25 26  2  0
 16 27  1  0
 27 28  1  0
 27 29  1  0
  9 30  1  0
 30 31  1  0
 31 32  1  6
 31 33  1  0
 33 34  1  6
 34 35  1  0
 35 36  1  0
 36 37  1  0
 37 38  1  0
 38 39  2  0
  9 40  1  0
 40 41  1  0
 40 42  1  0
 43 44  1  0
 44 45  1  0
 44 46  1  0
 47 46  1  6
 47 48  1  0
 48 49  1  0
 49 50  2  0
 49 51  1  0
 51 52  1  6
 52 53  1  0
 53 54  2  0
 55 53  1  6
 55 56  1  0
 57 56  1  6
 57 58  1  0
 58 59  1  1
 59 60  1  0
 60 61  2  0
 61 62  1  0
 62 63  1  0
 63 64  2  0
 64 65  1  0
 65 66  2  0
 66 67  1  0
 67 68  2  0
 58 69  1  0
 69 70  1  0
 69 71  1  0
 51 72  1  0
 72 73  1  0
 73 74  1  6
 73 75  1  0
 75 76  1  6
 76 77  1  0
 77 78  1  0
 78 79  1  0
 79 80  1  0
 80 81  2  0
 51 82  1  0
 82 83  1  0
 82 84  1  0
 85 86  1  0
 86 87  1  0
 88 86  1  6
 88 89  1  0
 89 90  1  0
 90 91  2  0
 90 92  1  0
 92 93  1  6
 93 94  1  0
 94 95  2  0
 96 94  1  6
 96 97  1  0
 98 97  1  6
 98 99  1  0
 99100  1  1
100101  1  0
101102  2  0
102103  1  0
103104  1  0
104105  2  0
105106  1  0
106107  2  0
107108  1  0
108109  2  0
 99110  1  0
110111  1  0
110112  1  0
 92113  1  0
113114  1  0
114115  1  6
114116  1  0
116117  1  6
117118  1  0
118119  1  0
119120  1  0
120121  1  0
121122  2  0
 92123  1  0
123124  1  0
123125  1  0
126127  1  0
127128  1  0
127129  1  0
129130  1  6
130131  1  0
131132  2  0
133131  1  6
133134  1  0
135134  1  6
135136  1  0
136137  1  1
137138  1  0
138139  2  0
139140  1  0
140141  1  0
141142  2  0
142143  1  0
143144  2  0
144145  1  0
145146  2  0
136147  1  0
147148  1  0
147149  1  0
129150  1  0
150151  1  0
151152  1  6
151153  1  0
153154  1  6
154155  1  0
155156  1  0
156157  1  0
157158  1  0
158159  2  0
158160  1  0
160161  1  6
161162  1  0
162163  2  0
163164  1  0
164165  2  0
165166  1  0
166167  2  0
160168  1  0
168169  1  0
169170  2  0
171172  1  0
172173  2  0
172174  2  0
172175  1  0
176177  1  0
177178  2  0
177179  2  0
177180  1  0
181182  1  0
182183  2  0
182184  2  0
182185  1  0
186187  1  0
187188  2  0
187189  2  0
187190  1  0
 38  5  1  0
 31  6  1  0
 29 13  1  0
 25 15  1  0
 26 18  1  0
 26 21  1  0
 37 33  1  0
 80 47  1  0
 73 48  1  0
 71 55  1  0
 67 57  1  0
 68 60  1  0
 68 63  1  0
 79 75  1  0
121 88  1  0
114 89  1  0
112 96  1  0
108 98  1  0
109101  1  0
109104  1  0
120116  1  0
169129  1  0
149133  1  0
145135  1  0
146138  1  0
146141  1  0
168151  1  0
157153  1  0
167162  1  0
M  END
$$$$
1540806
     RDKit          2D

170195  0  0  0  0  0  0  0  0999 V2000
   -0.3848    6.3624    0.0000 C   0  0  0  0  0  0  0  0  0  0  0  0
   -1.8520    6.6743    0.0000 C   0  0  0  0  0  0  0  0  0  0  0  0
   -2.3156    8.1009    0.0000 C   0  0  0  0  0  0  0  0  0  0  0  0
   -1.3119    9.2156    0.0000 C   0  0  0  0  0  0  0  0  0  0  0  0
   -3.7828    8.4128    0.0000 C   0  0  0  0  0  0  0  0  0  0  0  0
   -4.7865    7.2980    0.0000 N   0  0  0  0  0  0  0  0  0  0  0  0
   -4.6297    5.8063    0.0000 C   0  0  0  0  0  0  0  0  0  0  0  0
   -3.3306    5.0563    0.0000 O   0  0  0  0  0  0  0  0  0  0  0  0
   -6.0000    5.1962    0.0000 C   0  0  0  0  0  0  0  0  0  0  0  0
   -5.2500    3.8971    0.0000 N   0  0  0  0  0  0  0  0  0  0  0  0
   -6.0000    2.5981    0.0000 C   0  0  0  0  0  0  0  0  0  0  0  0
   -6.9768    2.4781    0.0000 O   0  0  0  0  0  0  0  0  0  0  0  0
   -5.2500    1.2990    0.0000 C   0  0  0  0  0  0  0  0  0  0  0  0
   -3.7500    1.2990    0.0000 C   0  0  0  0  0  0  0  0  0  0  0  0
   -3.0000   -0.0000    0.0000 C   0  0  0  0  0  0  0  0  0  0  0  0
   -3.7500   -1.2990    0.0000 C   0  0  0  0  0  0  0  0  0  0  0  0
   -3.0000   -2.5981    0.0000 C   0  0  0  0  0  0  0  0  0  0  0  0
   -1.5000   -2.5981    0.0000 C   0  0  0  0  0  0  0  0  0  0  0  0
   -0.3853   -3.6018    0.0000 C   0  0  0  0  0  0  0  0  0  0  0  0
    0.9138   -2.8518    0.0000 N   0  0  0  0  0  0  0  0  0  0  0  0
    0.7500   -1.2990    0.0000 C   0  0  0  0  0  0  0  0  0  0  0  0
    1.5000   -0.0000    0.0000 C   0  0  0  0  0  0  0  0  0  0  0  0
    0.7500    1.2990    0.0000 C   0  0  0  0  0  0  0  0  0  0  0  0
   -0.7500    1.2990    0.0000 C   0  0  0  0  0  0  0  0  0  0  0  0
   -1.5000   -0.0000    0.0000 C   0  0  0  0  0  0  0  0  0  0  0  0
   -0.7500   -1.2990    0.0000 C   0  0  0  0  0  0  0  0  0  0  0  0
   -5.2500   -1.2990    0.0000 N   0  0  0  0  0  0  0  0  0  0  0  0
   -6.0000   -2.5981    0.0000 C   0  0  0  0  0  0  0  0  0  0  0  0
   -6.0000    0.0000    0.0000 C   0  0  0  0  0  0  0  0  0  0  0  0
   -7.0037    6.3109    0.0000 O   0  0  0  0  0  0  0  0  0  0  0  0
   -6.2537    7.6099    0.0000 C   0  0  0  0  0  0  0  0  0  0  0  0
   -7.7455    7.7667    0.0000 O   0  0  0  0  0  0  0  0  0  0  0  0
   -6.7172    9.0365    0.0000 C   0  0  0  0  0  0  0  0  0  0  0  0
   -8.0875    9.6466    0.0000 C   0  0  0  0  0  0  0  0  0  0  0  0
   -7.9307   11.1384    0.0000 C   0  0  0  0  0  0  0  0  0  0  0  0
   -6.4635   11.4502    0.0000 C   0  0  0  0  0  0  0  0  0  0  0  0
   -5.7135   10.1512    0.0000 N   0  0  0  0  0  0  0  0  0  0  0  0
   -4.2463    9.8393    0.0000 C   0  0  0  0  0  0  0  0  0  0  0  0
   -3.2426   10.9541    0.0000 O   0  0  0  0  0  0  0  0  0  0  0  0
   -7.2135    4.3145    0.0000 C   0  0  0  0  0  0  0  0  0  0  0  0
   -7.2307    3.3305    0.0000 C   0  0  0  0  0  0  0  0  0  0  0  0
   -8.5838    4.9246    0.0000 C   0  0  0  0  0  0  0  0  0  0  0  0
   11.2392    8.9037    0.0000 C   0  0  0  0  0  0  0  0  0  0  0  0
    9.7720    9.2156    0.0000 C   0  0  0  0  0  0  0  0  0  0  0  0
    9.3085   10.6422    0.0000 C   0  0  0  0  0  0  0  0  0  0  0  0
    8.7683    8.1009    0.0000 C   0  0  0  0  0  0  0  0  0  0  0  0
    7.3011    8.4128    0.0000 C   0  0  0  0  0  0  0  0  0  0  0  0
    6.2974    7.2980    0.0000 N   0  0  0  0  0  0  0  0  0  0  0  0
    6.4542    5.8063    0.0000 C   0  0  0  0  0  0  0  0  0  0  0  0
    7.7532    5.0563    0.0000 O   0  0  0  0  0  0  0  0  0  0  0  0
    5.0838    5.1962    0.0000 C   0  0  0  0  0  0  0  0  0  0  0  0
    5.8338    3.8971    0.0000 N   0  0  0  0  0  0  0  0  0  0  0  0
    5.0838    2.5981    0.0000 C   0  0  0  0  0  0  0  0  0  0  0  0
    4.1070    2.4781    0.0000 O   0  0  0  0  0  0  0  0  0  0  0  0
    5.8338    1.2990    0.0000 C   0  0  0  0  0  0  0  0  0  0  0  0
    7.3338    1.2990    0.0000 C   0  0  0  0  0  0  0  0  0  0  0  0
    8.0838   -0.0000    0.0000 C   0  0  0  0  0  0  0  0  0  0  0  0
    7.3338   -1.2990    0.0000 C   0  0  0  0  0  0  0  0  0  0  0  0
    8.0838   -2.5981    0.0000 C   0  0  0  0  0  0  0  0  0  0  0  0
    9.5838   -2.5981    0.0000 C   0  0  0  0  0  0  0  0  0  0  0  0
   10.6986   -3.6018    0.0000 C   0  0  0  0  0  0  0  0  0  0  0  0
   11.9976   -2.8518    0.0000 N   0  0  0  0  0  0  0  0  0  0  0  0
   11.8338   -1.2990    0.0000 C   0  0  0  0  0  0  0  0  0  0  0  0
   12.5838   -0.0000    0.0000 C   0  0  0  0  0  0  0  0  0  0  0  0
   11.8338    1.2990    0.0000 C   0  0  0  0  0  0  0  0  0  0  0  0
   10.3338    1.2990    0.0000 C   0  0  0  0  0  0  0  0  0  0  0  0
    9.5838   -0.0000    0.0000 C   0  0  0  0  0  0  0  0  0  0  0  0
   10.3338   -1.2990    0.0000 C   0  0  0  0  0  0  0  0  0  0  0  0
    5.8338   -1.2990    0.0000 N   0  0  0  0  0  0  0  0  0  0  0  0
    5.0838   -2.5981    0.0000 C   0  0  0  0  0  0  0  0  0  0  0  0
    5.0838    0.0000    0.0000 C   0  0  0  0  0  0  0  0  0  0  0  0
    4.0801    6.3109    0.0000 O   0  0  0  0  0  0  0  0  0  0  0  0
    4.8301    7.6099    0.0000 C   0  0  0  0  0  0  0  0  0  0  0  0
    3.3384    7.7667    0.0000 O   0  0  0  0  0  0  0  0  0  0  0  0
    4.3666    9.0365    0.0000 C   0  0  0  0  0  0  0  0  0  0  0  0
    2.9963    9.6466    0.0000 C   0  0  0  0  0  0  0  0  0  0  0  0
    3.1531   11.1384    0.0000 C   0  0  0  0  0  0  0  0  0  0  0  0
    4.6203   11.4502    0.0000 C   0  0  0  0  0  0  0  0  0  0  0  0
    5.3703   10.1512    0.0000 N   0  0  0  0  0  0  0  0  0  0  0  0
    6.8375    9.8393    0.0000 C   0  0  0  0  0  0  0  0  0  0  0  0
    7.8412   10.9541    0.0000 O   0  0  0  0  0  0  0  0  0  0  0  0
    3.8703    4.3145    0.0000 C   0  0  0  0  0  0  0  0  0  0  0  0
    3.8531    3.3305    0.0000 C   0  0  0  0  0  0  0  0  0  0  0  0
    2.5000    4.9246    0.0000 C   0  0  0  0  0  0  0  0  0  0  0  0
   -1.3119   25.2676    0.0000 C   0  0  0  0  0  0  0  0  0  0  0  0
   -2.3156   24.1529    0.0000 C   0  0  0  0  0  0  0  0  0  0  0  0
   -1.8520   22.7263    0.0000 C   0  0  0  0  0  0  0  0  0  0  0  0
   -3.7828   24.4648    0.0000 C   0  0  0  0  0  0  0  0  0  0  0  0
   -4.7865   23.3501    0.0000 N   0  0  0  0  0  0  0  0  0  0  0  0
   -4.6297   21.8583    0.0000 C   0  0  0  0  0  0  0  0  0  0  0  0
   -3.3306   21.1083    0.0000 O   0  0  0  0  0  0  0  0  0  0  0  0
   -6.0000   21.2482    0.0000 C   0  0  0  0  0  0  0  0  0  0  0  0
   -5.2500   19.9491    0.0000 N   0  0  0  0  0  0  0  0  0  0  0  0
   -6.0000   18.6501    0.0000 C   0  0  0  0  0  0  0  0  0  0  0  0
   -6.9768   18.5301    0.0000 O   0  0  0  0  0  0  0  0  0  0  0  0
   -5.2500   17.3511    0.0000 C   0  0  0  0  0  0  0  0  0  0  0  0
   -3.7500   17.3511    0.0000 C   0  0  0  0  0  0  0  0  0  0  0  0
   -3.0000   16.0520    0.0000 C   0  0  0  0  0  0  0  0  0  0  0  0
   -3.7500   14.7530    0.0000 C   0  0  0  0  0  0  0  0  0  0  0  0
   -3.0000   13.4539    0.0000 C   0  0  0  0  0  0  0  0  0  0  0  0
   -1.5000   13.4539    0.0000 C   0  0  0  0  0  0  0  0  0  0  0  0
   -0.3853   12.4502    0.0000 C   0  0  0  0  0  0  0  0  0  0  0  0
    0.9138   13.2002    0.0000 N   0  0  0  0  0  0  0  0  0  0  0  0
    0.7500   14.7530    0.0000 C   0  0  0  0  0  0  0  0  0  0  0  0
    1.5000   16.0520    0.0000 C   0  0  0  0  0  0  0  0  0  0  0  0
    0.7500   17.3511    0.0000 C   0  0  0  0  0  0  0  0  0  0  0  0
   -0.7500   17.3511    0.0000 C   0  0  0  0  0  0  0  0  0  0  0  0
   -1.5000   16.0520    0.0000 C   0  0  0  0  0  0  0  0  0  0  0  0
   -0.7500   14.7530    0.0000 C   0  0  0  0  0  0  0  0  0  0  0  0
   -5.2500   14.7530    0.0000 N   0  0  0  0  0  0  0  0  0  0  0  0
   -6.0000   13.4539    0.0000 C   0  0  0  0  0  0  0  0  0  0  0  0
   -6.0000   16.0520    0.0000 C   0  0  0  0  0  0  0  0  0  0  0  0
   -7.0037   22.3629    0.0000 O   0  0  0  0  0  0  0  0  0  0  0  0
   -6.2537   23.6619    0.0000 C   0  0  0  0  0  0  0  0  0  0  0  0
   -7.7455   23.8187    0.0000 O   0  0  0  0  0  0  0  0  0  0  0  0
   -6.7172   25.0885    0.0000 C   0  0  0  0  0  0  0  0  0  0  0  0
   -8.0875   25.6986    0.0000 C   0  0  0  0  0  0  0  0  0  0  0  0
   -7.9307   27.1904    0.0000 C   0  0  0  0  0  0  0  0  0  0  0  0
   -6.4635   27.5023    0.0000 C   0  0  0  0  0  0  0  0  0  0  0  0
   -5.7135   26.2032    0.0000 N   0  0  0  0  0  0  0  0  0  0  0  0
   -4.2463   25.8914    0.0000 C   0  0  0  0  0  0  0  0  0  0  0  0
   -3.2426   27.0061    0.0000 O   0  0  0  0  0  0  0  0  0  0  0  0
   -7.2135   20.3665    0.0000 C   0  0  0  0  0  0  0  0  0  0  0  0
   -7.2307   19.3825    0.0000 C   0  0  0  0  0  0  0  0  0  0  0  0
   -8.5838   20.9766    0.0000 C   0  0  0  0  0  0  0  0  0  0  0  0
   13.5838    4.9246    0.0000 C   0  0  0  0  0  0  0  0  0  0  0  0
   14.9542    4.3145    0.0000 C   0  0  0  0  0  0  0  0  0  0  0  0
   14.9370    3.3305    0.0000 C   0  0  0  0  0  0  0  0  0  0  0  0
   16.1677    5.1962    0.0000 C   0  0  0  0  0  0  0  0  0  0  0  0
   16.9177    3.8971    0.0000 N   0  0  0  0  0  0  0  0  0  0  0  0
   16.1677    2.5981    0.0000 C   0  0  0  0  0  0  0  0  0  0  0  0
   15.1909    2.4781    0.0000 O   0  0  0  0  0  0  0  0  0  0  0  0
   16.9177    1.2990    0.0000 C   0  0  0  0  0  0  0  0  0  0  0  0
   18.4177    1.2990    0.0000 C   0  0  0  0  0  0  0  0  0  0  0  0
   19.1677   -0.0000    0.0000 C   0  0  0  0  0  0  0  0  0  0  0  0
   18.4177   -1.2990    0.0000 C   0  0  0  0  0  0  0  0  0  0  0  0
   19.1677   -2.5981    0.0000 C   0  0  0  0  0  0  0  0  0  0  0  0
   20.6677   -2.5981    0.0000 C   0  0  0  0  0  0  0  0  0  0  0  0
   21.7824   -3.6018    0.0000 C   0  0  0  0  0  0  0  0  0  0  0  0
   23.0814   -2.8518    0.0000 N   0  0  0  0  0  0  0  0  0  0  0  0
   22.9177   -1.2990    0.0000 C   0  0  0  0  0  0  0  0  0  0  0  0
   23.6677   -0.0000    0.0000 C   0  0  0  0  0  0  0  0  0  0  0  0
   22.9177    1.2990    0.0000 C   0  0  0  0  0  0  0  0  0  0  0  0
   21.4177    1.2990    0.0000 C   0  0  0  0  0  0  0  0  0  0  0  0
   20.6677   -0.0000    0.0000 C   0  0  0  0  0  0  0  0  0  0  0  0
   21.4177   -1.2990    0.0000 C   0  0  0  0  0  0  0  0  0  0  0  0
   16.9177   -1.2990    0.0000 N   0  0  0  0  0  0  0  0  0  0  0  0
   16.1677   -2.5981    0.0000 C   0  0  0  0  0  0  0  0  0  0  0  0
   16.1677    0.0000    0.0000 C   0  0  0  0  0  0  0  0  0  0  0  0
   15.1640    6.3109    0.0000 O   0  0  0  0  0  0  0  0  0  0  0  0
   15.9140    7.6099    0.0000 C   0  0  0  0  0  0  0  0  0  0  0  0
   14.4222    7.7667    0.0000 O   0  0  0  0  0  0  0  0  0  0  0  0
   15.4505    9.0365    0.0000 C   0  0  0  0  0  0  0  0  0  0  0  0
   14.0801    9.6466    0.0000 C   0  0  0  0  0  0  0  0  0  0  0  0
   14.2369   11.1384    0.0000 C   0  0  0  0  0  0  0  0  0  0  0  0
   15.7042   11.4502    0.0000 C   0  0  0  0  0  0  0  0  0  0  0  0
   16.4542   10.1512    0.0000 N   0  0  0  0  0  0  0  0  0  0  0  0
   17.9214    9.8393    0.0000 C   0  0  0  0  0  0  0  0  0  0  0  0
   18.9251   10.9541    0.0000 O   0  0  0  0  0  0  0  0  0  0  0  0
   18.3849    8.4128    0.0000 C   0  0  0  0  0  0  0  0  0  0  0  0
   19.8521    8.1009    0.0000 C   0  0  0  0  0  0  0  0  0  0  0  0
   20.3157    6.6743    0.0000 C   0  0  0  0  0  0  0  0  0  0  0  0
   19.3120    5.5596    0.0000 C   0  0  0  0  0  0  0  0  0  0  0  0
   19.7755    4.1330    0.0000 C   0  0  0  0  0  0  0  0  0  0  0  0
   21.2427    3.8211    0.0000 C   0  0  0  0  0  0  0  0  0  0  0  0
   22.2464    4.9359    0.0000 C   0  0  0  0  0  0  0  0  0  0  0  0
   21.7829    6.3624    0.0000 C   0  0  0  0  0  0  0  0  0  0  0  0
   17.3812    7.2980    0.0000 N   0  0  0  0  0  0  0  0  0  0  0  0
   17.5380    5.8063    0.0000 C   0  0  0  0  0  0  0  0  0  0  0  0
   18.6170    4.7642    0.0000 O   0  0  0  0  0  0  0  0  0  0  0  0
  1  2  1  0
  2  3  1  0
  3  4  1  0
  5  3  1  6
  5  6  1  0
  6  7  1  0
  7  8  2  0
  7  9  1  0
  9 10  1  6
 10 11  1  0
 11 12  2  0
 13 11  1  6
 13 14  1  0
 15 14  1  6
 15 16  1  0
 16 17  1  1
 17 18  1  0
 18 19  2  0
 19 20  1  0
 20 21  1  0
 21 22  2  0
 22 23  1  0
 23 24  2  0
 24 25  1  0
 25 26  2  0
 16 27  1  0
 27 28  1  0
 27 29  1  0
  9 30  1  0
 30 31  1  0
 31 32  1  6
 31 33  1  0
 33 34  1  6
 34 35  1  0
 35 36  1  0
 36 37  1  0
 37 38  1  0
 38 39  2  0
  9 40  1  0
 40 41  1  0
 40 42  1  0
 43 44  1  0
 44 45  1  0
 44 46  1  0
 47 46  1  6
 47 48  1  0
 48 49  1  0
 49 50  2  0
 49 51  1  0
 51 52  1  6
 52 53  1  0
 53 54  2  0
 55 53  1  6
 55 56  1  0
 57 56  1  6
 57 58  1  0
 58 59  1  1
 59 60  1  0
 60 61  2  0
 61 62  1  0
 62 63  1  0
 63 64  2  0
 64 65  1  0
 65 66  2  0
 66 67  1  0
 67 68  2  0
 58 69  1  0
 69 70  1  0
 69 71  1  0
 51 72  1  0
 72 73  1  0
 73 74  1  6
 73 75  1  0
 75 76  1  6
 76 77  1  0
 77 78  1  0
 78 79  1  0
 79 80  1  0
 80 81  2  0
 51 82  1  0
 82 83  1  0
 82 84  1  0
 85 86  1  0
 86 87  1  0
 88 86  1  6
 88 89  1  0
 89 90  1  0
 90 91  2  0
 90 92  1  0
 92 93  1  6
 93 94  1  0
 94 95  2  0
 96 94  1  6
 96 97  1  0
 98 97  1  6
 98 99  1  0
 99100  1  1
100101  1  0
101102  2  0
102103  1  0
103104  1  0
104105  2  0
105106  1  0
106107  2  0
107108  1  0
108109  2  0
 99110  1  0
110111  1  0
110112  1  0
 92113  1  0
113114  1  0
114115  1  6
114116  1  0
116117  1  6
117118  1  0
118119  1  0
119120  1  0
120121  1  0
121122  2  0
 92123  1  0
123124  1  0
123125  1  0
126127  1  0
127128  1  0
127129  1  0
129130  1  6
130131  1  0
131132  2  0
133131  1  6
133134  1  0
135134  1  6
135136  1  0
136137  1  1
137138  1  0
138139  2  0
139140  1  0
140141  1  0
141142  2  0
142143  1  0
143144  2  0
144145  1  0
145146  2  0
136147  1  0
147148  1  0
147149  1  0
129150  1  0
150151  1  0
151152  1  6
151153  1  0
153154  1  6
154155  1  0
155156  1  0
156157  1  0
157158  1  0
158159  2  0
158160  1  0
160161  1  6
161162  1  0
162163  2  0
163164  1  0
164165  2  0
165166  1  0
166167  2  0
160168  1  0
168169  1  0
169170  2  0
 38  5  1  0
 31  6  1  0
 29 13  1  0
 25 15  1  0
 26 18  1  0
 26 21  1  0
 37 33  1  0
 80 47  1  0
 73 48  1  0
 71 55  1  0
 67 57  1  0
 68 60  1  0
 68 63  1  0
 79 75  1  0
121 88  1  0
114 89  1  0
112 96  1  0
108 98  1  0
109101  1  0
109104  1  0
120116  1  0
169129  1  0
149133  1  0
145135  1  0
146138  1  0
146141  1  0
168151  1  0
157153  1  0
167162  1  0
M  END
$$$$
17471
     RDKit          2D

 21 23  0  0  0  0  0  0  0  0999 V2000
   -3.7500   -6.4952    0.0000 C   0  0  0  0  0  0  0  0  0  0  0  0
   -3.0000   -5.1962    0.0000 C   0  0  0  0  0  0  0  0  0  0  0  0
   -1.5000   -5.1962    0.0000 C   0  0  0  0  0  0  0  0  0  0  0  0
   -0.7500   -3.8971    0.0000 C   0  0  0  0  0  0  0  0  0  0  0  0
    0.7500   -3.8971    0.0000 C   0  0  0  0  0  0  0  0  0  0  0  0
    1.5000   -5.1962    0.0000 O   0  0  0  0  0  0  0  0  0  0  0  0
    1.5000   -2.5981    0.0000 O   0  0  0  0  0  0  0  0  0  0  0  0
    0.7500   -1.2990    0.0000 C   0  0  0  0  0  0  0  0  0  0  0  0
    1.5000    0.0000    0.0000 C   0  0  0  0  0  0  0  0  0  0  0  0
    0.7500    1.2990    0.0000 C   0  0  0  0  0  0  0  0  0  0  0  0
   -0.7500    1.2990    0.0000 C   0  0  0  0  0  0  0  0  0  0  0  0
   -1.5000    0.0000    0.0000 C   0  0  0  0  0  0  0  0  0  0  0  0
   -0.7500   -1.2990    0.0000 C   0  0  0  0  0  0  0  0  0  0  0  0
   -1.5000   -2.5981    0.0000 C   0  0  0  0  0  0  0  0  0  0  0  0
   -3.0000   -2.5981    0.0000 O   0  0  0  0  0  0  0  0  0  0  0  0
   -0.7500   -6.4952    0.0000 C   0  0  0  0  0  0  0  0  0  0  0  0
   -1.5000   -7.7942    0.0000 C   0  0  0  0  0  0  0  0  0  0  0  0
   -0.7500   -9.0933    0.0000 C   0  0  0  0  0  0  0  0  0  0  0  0
    0.7500   -9.0933    0.0000 C   0  0  0  0  0  0  0  0  0  0  0  0
    1.5000   -7.7942    0.0000 C   0  0  0  0  0  0  0  0  0  0  0  0
    0.7500   -6.4952    0.0000 C   0  0  0  0  0  0  0  0  0  0  0  0
  1  2  1  0
  2  3  1  0
  3  4  1  0
  4  5  2  0
  5  6  1  0
  5  7  1  0
  7  8  1  0
  8  9  2  0
  9 10  1  0
 10 11  2  0
 11 12  1  0
 12 13  2  0
 13 14  1  0
 14 15  2  0
  3 16  1  0
 16 17  2  0
 17 18  1  0
 18 19  2  0
 19 20  1  0
 20 21  2  0
 14  4  1  0
 13  8  1  0
 21 16  1  0
M  END
$$$$
68817
     RDKit          2D

 17 17  0  0  0  0  0  0  0  0999 V2000
    3.7500   -3.8971    0.0000 C   0  0  0  0  0  0  0  0  0  0  0  0
    3.0000   -2.5981    0.0000 C   0  0  0  0  0  0  0  0  0  0  0  0
    3.7500   -1.2990    0.0000 C   0  0  0  0  0  0  0  0  0  0  0  0
    3.0000    0.0000    0.0000 C   0  0  0  0  0  0  0  0  0  0  0  0
    1.5000    0.0000    0.0000 C   0  0  0  0  0  0  0  0  0  0  0  0
    0.7500   -1.2990    0.0000 C   0  0  0  0  0  0  0  0  0  0  0  0
    1.5000   -2.5981    0.0000 I   0  0  0  0  0  0  0  0  0  0  0  0
   -0.7500   -1.2990    0.0000 C   0  0  0  0  0  0  0  0  0  0  0  0
   -1.5000    0.0000    0.0000 C   0  0  0  0  0  0  0  0  0  0  0  0
   -3.0000    0.0000    0.0000 I   0  0  0  0  0  0  0  0  0  0  0  0
   -0.7500    1.2990    0.0000 C   0  0  0  0  0  0  0  0  0  0  0  0
   -1.5000    2.5981    0.0000 N   0  0  0  0  0  0  0  0  0  0  0  0
    0.7500    1.2990    0.0000 C   0  0  0  0  0  0  0  0  0  0  0  0
    1.5000    2.5981    0.0000 I   0  0  0  0  0  0  0  0  0  0  0  0
    5.2500   -1.2990    0.0000 C   0  0  0  0  0  0  0  0  0  0  0  0
    6.0000   -0.0000    0.0000 O   0  0  0  0  0  0  0  0  0  0  0  0
    6.0000   -2.5981    0.0000 O   0  0  0  0  0  0  0  0  0  0  0  0
  1  2  1  0
  2  3  1  0
  3  4  1  0
  4  5  1  0
  5  6  2  0
  6  7  1  0
  6  8  1  0
  8  9  2  0
  9 10  1  0
  9 11  1  0
 11 12  1  0
 11 13  2  0
 13 14  1  0
  3 15  1  0
 15 16  2  0
 15 17  1  0
 13  5  1  0
M  END
$$$$
19469
     RDKit          2D

  9  8  0  0  0  0  0  0  0  0999 V2000
   -0.7500   -3.8971    0.0000 C   0  0  0  0  0  0  0  0  0  0  0  0
   -1.5000   -2.5981    0.0000 C   0  0  0  0  0  0  0  0  0  0  0  0
   -0.7500   -1.2990    0.0000 C   0  0  0  0  0  0  0  0  0  0  0  0
   -2.0490   -0.5490    0.0000 O   0  0  0  0  0  0  0  0  0  0  0  0
    0.0000    0.0000    0.0000 C   0  0  0  0  0  0  0  0  0  0  0  0
    1.5000    0.0000    0.0000 C   0  0  0  0  0  0  0  0  0  0  0  0
    2.2500    1.2990    0.0000 Cl  0  0  0  0  0  0  0  0  0  0  0  0
    0.5490   -2.0490    0.0000 C   0  0  0  0  0  0  0  0  0  0  0  0
    1.8481   -2.7990    0.0000 C   0  0  0  0  0  0  0  0  0  0  0  0
  1  2  1  0
  2  3  1  0
  3  4  1  0
  3  5  1  0
  5  6  2  0
  6  7  1  0
  3  8  1  0
  8  9  3  0
M  END
$$$$
65728
     RDKit          2D

 16 17  0  0  0  0  0  0  0  0999 V2000
    2.4200   -3.2893    0.0000 C   0  0  0  0  0  0  0  0  0  0  0  0
    2.1595   -1.8121    0.0000 C   0  0  0  0  0  0  0  0  0  0  0  0
    0.7500   -1.2990    0.0000 C   0  0  0  0  0  0  0  0  0  0  0  0
    1.5000    0.0000    0.0000 C   0  0  0  0  0  0  0  0  0  0  0  0
    3.0000    0.0000    0.0000 O   0  0  0  0  0  0  0  0  0  0  0  0
    0.7500    1.2990    0.0000 N   0  0  0  0  0  0  0  0  0  0  0  0
   -0.7500    1.2990    0.0000 C   0  0  0  0  0  0  0  0  0  0  0  0
   -1.5000    0.0000    0.0000 N   0  0  0  0  0  0  0  0  0  0  0  0
   -0.7500   -1.2990    0.0000 C   0  0  0  0  0  0  0  0  0  0  0  0
   -1.5000   -2.5981    0.0000 O   0  0  0  0  0  0  0  0  0  0  0  0
    0.4895   -2.7762    0.0000 C   0  0  0  0  0  0  0  0  0  0  0  0
   -0.9200   -3.2893    0.0000 C   0  0  0  0  0  0  0  0  0  0  0  0
   -1.1805   -4.7665    0.0000 C   0  0  0  0  0  0  0  0  0  0  0  0
   -0.0314   -5.7307    0.0000 C   0  0  0  0  0  0  0  0  0  0  0  0
    1.3781   -5.2176    0.0000 C   0  0  0  0  0  0  0  0  0  0  0  0
    1.6386   -3.7404    0.0000 C   0  0  0  0  0  0  0  0  0  0  0  0
  1  2  1  0
  2  3  1  0
  3  4  1  0
  4  5  2  0
  4  6  1  0
  6  7  1  0
  7  8  1  0
  8  9  1  0
  9 10  2  0
  3 11  1  0
 11 12  2  0
 12 13  1  0
 13 14  2  0
 14 15  1  0
 15 16  2  0
  9  3  1  0
 16 11  1  0
M  END
$$$$
31811
     RDKit          2D

 10 10  0  0  0  0  0  0  0  0999 V2000
    2.0788   -2.4709    0.0000 C   0  0  0  0  0  0  0  0  0  0  0  0
    2.3907   -1.0037    0.0000 C   0  0  0  0  0  0  0  0  0  0  0  0
    1.2760    0.0000    0.0000 C   0  0  0  0  0  0  0  0  0  0  0  0
    2.3907    1.0037    0.0000 C   0  0  0  0  0  0  0  0  0  0  0  0
    0.3943    1.2135    0.0000 C   0  0  0  0  0  0  0  0  0  0  0  0
   -1.0323    0.7500    0.0000 C   0  0  0  0  0  0  0  0  0  0  0  0
   -2.2458    1.6317    0.0000 O   0  0  0  0  0  0  0  0  0  0  0  0
   -1.0323   -0.7500    0.0000 N   0  0  0  0  0  0  0  0  0  0  0  0
    0.3943   -1.2135    0.0000 C   0  0  0  0  0  0  0  0  0  0  0  0
    0.8578   -2.6401    0.0000 O   0  0  0  0  0  0  0  0  0  0  0  0
  1  2  1  0
  2  3  1  0
  3  4  1  0
  3  5  1  0
  5  6  1  0
  6  7  2  0
  6  8  1  0
  8  9  1  0
  9 10  2  0
  9  3  1  0
M  END
$$$$
150989
     RDKit          2D

 11 11  0  0  0  0  0  0  0  0999 V2000
    2.0788   -2.4709    0.0000 C   0  0  0  0  0  0  0  0  0  0  0  0
    2.3907   -1.0037    0.0000 C   0  0  0  0  0  0  0  0  0  0  0  0
    1.2760    0.0000    0.0000 C   0  0  0  0  0  0  0  0  0  0  0  0
    2.3907    1.0037    0.0000 C   0  0  0  0  0  0  0  0  0  0  0  0
    0.3943    1.2135    0.0000 O   0  0  0  0  0  0  0  0  0  0  0  0
   -1.0323    0.7500    0.0000 C   0  0  0  0  0  0  0  0  0  0  0  0
   -2.2458    1.6317    0.0000 O   0  0  0  0  0  0  0  0  0  0  0  0
   -1.0323   -0.7500    0.0000 N   0  0  0  0  0  0  0  0  0  0  0  0
   -2.2458   -1.6317    0.0000 C   0  0  0  0  0  0  0  0  0  0  0  0
    0.3943   -1.2135    0.0000 C   0  0  0  0  0  0  0  0  0  0  0  0
    0.8578   -2.6401    0.0000 O   0  0  0  0  0  0  0  0  0  0  0  0
  1  2  1  0
  2  3  1  0
  3  4  1  0
  3  5  1  0
  5  6  1  0
  6  7  2  0
  6  8  1  0
  8  9  1  0
  8 10  1  0
 10 11  2  0
 10  3  1  0
M  END
$$$$
2408
     RDKit          2D

 14 14  0  0  0  0  0  0  0  0999 V2000
    4.0586    0.4512    0.0000 C   0  0  0  0  0  0  0  0  0  0  0  0
    2.6491    0.9642    0.0000 C   0  0  0  0  0  0  0  0  0  0  0  0
    1.5000    0.0000    0.0000 C   0  0  0  0  0  0  0  0  0  0  0  0
    2.6491   -0.9642    0.0000 C   0  0  0  0  0  0  0  0  0  0  0  0
    2.3886   -2.4414    0.0000 C   0  0  0  0  0  0  0  0  0  0  0  0
    0.7500   -1.2990    0.0000 C   0  0  0  0  0  0  0  0  0  0  0  0
    1.5000   -2.5981    0.0000 O   0  0  0  0  0  0  0  0  0  0  0  0
   -0.7500   -1.2990    0.0000 N   0  0  0  0  0  0  0  0  0  0  0  0
   -1.5000    0.0000    0.0000 C   0  0  0  0  0  0  0  0  0  0  0  0
   -3.0000    0.0000    0.0000 O   0  0  0  0  0  0  0  0  0  0  0  0
   -0.7500    1.2990    0.0000 N   0  0  0  0  0  0  0  0  0  0  0  0
   -1.5000    2.5981    0.0000 C   0  0  0  0  0  0  0  0  0  0  0  0
    0.7500    1.2990    0.0000 C   0  0  0  0  0  0  0  0  0  0  0  0
    1.5000    2.5981    0.0000 O   0  0  0  0  0  0  0  0  0  0  0  0
  1  2  1  0
  2  3  1  0
  3  4  1  0
  4  5  1  0
  3  6  1  0
  6  7  2  0
  6  8  1  0
  8  9  1  0
  9 10  2  0
  9 11  1  0
 11 12  1  0
 11 13  1  0
 13 14  2  0
 13  3  1  0
M  END
$$$$
674741
     RDKit          2D

 13 13  0  0  0  0  0  0  0  0999 V2000
    4.0586    0.4512    0.0000 C   0  0  0  0  0  0  0  0  0  0  0  0
    2.6491    0.9642    0.0000 C   0  0  0  0  0  0  0  0  0  0  0  0
    1.5000    0.0000    0.0000 C   0  0  0  0  0  0  0  0  0  0  0  0
    2.6491   -0.9642    0.0000 C   0  0  0  0  0  0  0  0  0  0  0  0
    2.3886   -2.4414    0.0000 C   0  0  0  0  0  0  0  0  0  0  0  0
    0.7500   -1.2990    0.0000 C   0  0  0  0  0  0  0  0  0  0  0  0
    1.5000   -2.5981    0.0000 O   0  0  0  0  0  0  0  0  0  0  0  0
   -0.7500   -1.2990    0.0000 N   0  0  0  0  0  0  0  0  0  0  0  0
   -1.5000    0.0000    0.0000 C   0  0  0  0  0  0  0  0  0  0  0  0
   -0.7500    1.2990    0.0000 C   0  0  0  0  0  0  0  0  0  0  0  0
   -1.5000    2.5981    0.0000 C   0  0  0  0  0  0  0  0  0  0  0  0
    0.7500    1.2990    0.0000 C   0  0  0  0  0  0  0  0  0  0  0  0
    1.5000    2.5981    0.0000 O   0  0  0  0  0  0  0  0  0  0  0  0
  1  2  1  0
  2  3  1  0
  3  4  1  0
  4  5  1  0
  3  6  1  0
  6  7  2  0
  6  8  1  0
  8  9  1  0
  9 10  1  0
 10 11  1  0
 10 12  1  0
 12 13  2  0
 12  3  1  0
M  END
$$$$
6317
     RDKit          2D

 17 18  0  0  0  0  0  0  0  0999 V2000
    2.4200   -3.2893    0.0000 C   0  0  0  0  0  0  0  0  0  0  0  0
    2.1595   -1.8121    0.0000 C   0  0  0  0  0  0  0  0  0  0  0  0
    0.7500   -1.2990    0.0000 C   0  0  0  0  0  0  0  0  0  0  0  0
    1.5000    0.0000    0.0000 C   0  0  0  0  0  0  0  0  0  0  0  0
    0.7500    1.2990    0.0000 C   0  0  0  0  0  0  0  0  0  0  0  0
   -0.7500    1.2990    0.0000 C   0  0  0  0  0  0  0  0  0  0  0  0
   -1.5000    2.5981    0.0000 O   0  0  0  0  0  0  0  0  0  0  0  0
   -1.5000    0.0000    0.0000 N   0  0  0  0  0  0  0  0  0  0  0  0
   -0.7500   -1.2990    0.0000 C   0  0  0  0  0  0  0  0  0  0  0  0
   -1.5000   -2.5981    0.0000 O   0  0  0  0  0  0  0  0  0  0  0  0
    0.4895   -2.7762    0.0000 C   0  0  0  0  0  0  0  0  0  0  0  0
   -0.9200   -3.2893    0.0000 C   0  0  0  0  0  0  0  0  0  0  0  0
   -1.1805   -4.7665    0.0000 C   0  0  0  0  0  0  0  0  0  0  0  0
   -0.0314   -5.7307    0.0000 C   0  0  0  0  0  0  0  0  0  0  0  0
   -0.2919   -7.2079    0.0000 N   0  0  0  0  0  0  0  0  0  0  0  0
    1.3781   -5.2176    0.0000 C   0  0  0  0  0  0  0  0  0  0  0  0
    1.6386   -3.7404    0.0000 C   0  0  0  0  0  0  0  0  0  0  0  0
  1  2  1  0
  2  3  1  0
  3  4  1  0
  4  5  1  0
  5  6  1  0
  6  7  2  0
  6  8  1  0
  8  9  1  0
  9 10  2  0
  3 11  1  0
 11 12  2  0
 12 13  1  0
 13 14  2  0
 14 15  1  0
 14 16  1  0
 16 17  2  0
  9  3  1  0
 17 11  1  0
M  END
$$$$
151300
     RDKit          2D

 16 17  0  0  0  0  0  0  0  0999 V2000
    2.4200   -3.2893    0.0000 C   0  0  0  0  0  0  0  0  0  0  0  0
    2.1595   -1.8121    0.0000 C   0  0  0  0  0  0  0  0  0  0  0  0
    0.7500   -1.2990    0.0000 C   0  0  0  0  0  0  0  0  0  0  0  0
    1.5000    0.0000    0.0000 C   0  0  0  0  0  0  0  0  0  0  0  0
    0.7500    1.2990    0.0000 C   0  0  0  0  0  0  0  0  0  0  0  0
   -0.7500    1.2990    0.0000 C   0  0  0  0  0  0  0  0  0  0  0  0
   -1.5000    2.5981    0.0000 O   0  0  0  0  0  0  0  0  0  0  0  0
   -1.5000    0.0000    0.0000 N   0  0  0  0  0  0  0  0  0  0  0  0
   -0.7500   -1.2990    0.0000 C   0  0  0  0  0  0  0  0  0  0  0  0
   -1.5000   -2.5981    0.0000 O   0  0  0  0  0  0  0  0  0  0  0  0
    0.4895   -2.7762    0.0000 C   0  0  0  0  0  0  0  0  0  0  0  0
   -0.9200   -3.2893    0.0000 C   0  0  0  0  0  0  0  0  0  0  0  0
   -1.1805   -4.7665    0.0000 C   0  0  0  0  0  0  0  0  0  0  0  0
   -0.0314   -5.7307    0.0000 C   0  0  0  0  0  0  0  0  0  0  0  0
    1.3781   -5.2176    0.0000 C   0  0  0  0  0  0  0  0  0  0  0  0
    1.6386   -3.7404    0.0000 C   0  0  0  0  0  0  0  0  0  0  0  0
  1  2  1  0
  2  3  1  0
  3  4  1  0
  4  5  1  0
  5  6  1  0
  6  7  2  0
  6  8  1  0
  8  9  1  0
  9 10  2  0
  3 11  1  0
 11 12  2  0
 12 13  1  0
 13 14  2  0
 14 15  1  0
 15 16  2  0
  9  3  1  0
 16 11  1  0
M  END
$$$$
66016
     RDKit          2D

 16 17  0  0  0  0  0  0  0  0999 V2000
    4.0838   -2.3265    0.0000 C   0  0  0  0  0  0  0  0  0  0  0  0
    2.7135   -1.7164    0.0000 C   0  0  0  0  0  0  0  0  0  0  0  0
    1.5000   -2.5981    0.0000 C   0  0  0  0  0  0  0  0  0  0  0  0
    2.5037   -3.7128    0.0000 N   0  0  0  0  0  0  0  0  0  0  0  0
    1.7537   -5.0118    0.0000 C   0  0  0  0  0  0  0  0  0  0  0  0
    2.3638   -6.3821    0.0000 O   0  0  0  0  0  0  0  0  0  0  0  0
    0.2865   -4.7000    0.0000 N   0  0  0  0  0  0  0  0  0  0  0  0
   -0.8282   -5.7037    0.0000 C   0  0  0  0  0  0  0  0  0  0  0  0
    0.1297   -3.2082    0.0000 C   0  0  0  0  0  0  0  0  0  0  0  0
   -1.1694   -2.4582    0.0000 O   0  0  0  0  0  0  0  0  0  0  0  0
    0.7500   -1.2990    0.0000 C   0  0  0  0  0  0  0  0  0  0  0  0
    1.5000    0.0000    0.0000 C   0  0  0  0  0  0  0  0  0  0  0  0
    0.7500    1.2990    0.0000 C   0  0  0  0  0  0  0  0  0  0  0  0
   -0.7500    1.2990    0.0000 C   0  0  0  0  0  0  0  0  0  0  0  0
   -1.5000    0.0000    0.0000 C   0  0  0  0  0  0  0  0  0  0  0  0
   -0.7500   -1.2990    0.0000 C   0  0  0  0  0  0  0  0  0  0  0  0
  1  2  1  0
  2  3  1  0
  3  4  1  0
  4  5  1  0
  5  6  2  0
  5  7  1  0
  7  8  1  0
  7  9  1  0
  9 10  2  0
  3 11  1  0
 11 12  2  0
 12 13  1  0
 13 14  2  0
 14 15  1  0
 15 16  2  0
  9  3  1  0
 16 11  1  0
M  END
$$$$
405366
     RDKit          2D

 34 36  0  0  0  0  0  0  0  0999 V2000
    0.4775  -12.2701    0.0000 C   0  0  0  0  0  0  0  0  0  0  0  0
    1.8478  -11.6600    0.0000 C   0  0  0  0  0  0  0  0  0  0  0  0
    2.0046  -10.1682    0.0000 C   0  0  0  0  0  0  0  0  0  0  0  0
    3.3037   -9.4182    0.0000 C   0  0  0  0  0  0  0  0  0  0  0  0
    4.6740  -10.0283    0.0000 C   0  0  0  0  0  0  0  0  0  0  0  0
    2.9918   -7.9510    0.0000 C   0  0  0  0  0  0  0  0  0  0  0  0
    1.5000   -7.7942    0.0000 N   0  0  0  0  0  0  0  0  0  0  0  0
    0.7500   -6.4952    0.0000 C   0  0  0  0  0  0  0  0  0  0  0  0
   -0.7500   -6.4952    0.0000 O   0  0  0  0  0  0  0  0  0  0  0  0
    1.5000   -5.1962    0.0000 N   0  0  0  0  0  0  0  0  0  0  0  0
    0.7500   -3.8971    0.0000 C   0  0  0  0  0  0  0  0  0  0  0  0
    1.5000   -2.5981    0.0000 C   0  0  0  0  0  0  0  0  0  0  0  0
    0.7500   -1.2990    0.0000 C   0  0  0  0  0  0  0  0  0  0  0  0
    1.5000    0.0000    0.0000 C   0  0  0  0  0  0  0  0  0  0  0  0
    0.7500    1.2990    0.0000 C   0  0  0  0  0  0  0  0  0  0  0  0
   -0.7500    1.2990    0.0000 C   0  0  0  0  0  0  0  0  0  0  0  0
   -1.5000    0.0000    0.0000 C   0  0  0  0  0  0  0  0  0  0  0  0
   -0.7500   -1.2990    0.0000 C   0  0  0  0  0  0  0  0  0  0  0  0
   -1.5000    2.5981    0.0000 S   0  0  0  0  0  0  0  0  0  0  0  0
   -0.2010    3.3481    0.0000 O   0  0  0  0  0  0  0  0  0  0  0  0
   -2.7990    1.8481    0.0000 O   0  0  0  0  0  0  0  0  0  0  0  0
   -2.2500    3.8971    0.0000 N   0  0  0  0  0  0  0  0  0  0  0  0
   -3.7500    3.8971    0.0000 C   0  0  0  0  0  0  0  0  0  0  0  0
   -4.5000    2.5981    0.0000 O   0  0  0  0  0  0  0  0  0  0  0  0
   -4.5000    5.1962    0.0000 N   0  0  0  0  0  0  0  0  0  0  0  0
   -6.0000    5.1962    0.0000 C   0  0  0  0  0  0  0  0  0  0  0  0
   -6.7500    6.4952    0.0000 C   0  0  0  0  0  0  0  0  0  0  0  0
   -8.2500    6.4952    0.0000 C   0  0  0  0  0  0  0  0  0  0  0  0
   -9.0000    5.1962    0.0000 C   0  0  0  0  0  0  0  0  0  0  0  0
  -10.5000    5.1962    0.0000 C   0  0  0  0  0  0  0  0  0  0  0  0
   -8.2500    3.8971    0.0000 C   0  0  0  0  0  0  0  0  0  0  0  0
   -6.7500    3.8971    0.0000 C   0  0  0  0  0  0  0  0  0  0  0  0
    0.8899   -9.1645    0.0000 C   0  0  0  0  0  0  0  0  0  0  0  0
   -0.5773   -9.4764    0.0000 O   0  0  0  0  0  0  0  0  0  0  0  0
  1  2  1  0
  2  3  1  0
  3  4  2  0
  4  5  1  0
  4  6  1  0
  6  7  1  0
  7  8  1  0
  8  9  2  0
  8 10  1  0
 10 11  1  0
 11 12  1  0
 12 13  1  0
 13 14  2  0
 14 15  1  0
 15 16  2  0
 16 17  1  0
 17 18  2  0
 16 19  1  0
 19 20  2  0
 19 21  2  0
 19 22  1  0
 22 23  1  0
 23 24  2  0
 23 25  1  0
 26 25  1  1
 26 27  1  0
 27 28  1  0
 28 29  1  0
 29 30  1  6
 29 31  1  0
 31 32  1  0
  7 33  1  0
 33 34  2  0
 33  3  1  0
 18 13  1  0
 32 26  1  0
M  END
$$$$
26465
     RDKit          2D

 33 36  0  0  0  0  0  0  0  0999 V2000
   -0.8113  -11.2427    0.0000 C   0  0  0  0  0  0  0  0  0  0  0  0
    0.4022  -10.3610    0.0000 C   0  0  0  0  0  0  0  0  0  0  0  0
    0.2454   -8.8692    0.0000 C   0  0  0  0  0  0  0  0  0  0  0  0
    1.3601   -7.8655    0.0000 N   0  0  0  0  0  0  0  0  0  0  0  0
    0.7500   -6.4952    0.0000 N   0  0  0  0  0  0  0  0  0  0  0  0
    1.5000   -5.1962    0.0000 C   0  0  0  0  0  0  0  0  0  0  0  0
    0.7500   -3.8971    0.0000 C   0  0  0  0  0  0  0  0  0  0  0  0
    1.5000   -2.5981    0.0000 C   0  0  0  0  0  0  0  0  0  0  0  0
    0.7500   -1.2990    0.0000 N   0  0  0  0  0  0  0  0  0  0  0  0
    1.5000    0.0000    0.0000 C   0  0  0  0  0  0  0  0  0  0  0  0
    0.7500    1.2990    0.0000 C   0  0  0  0  0  0  0  0  0  0  0  0
   -0.7500    1.2990    0.0000 N   0  0  0  0  0  0  0  0  0  0  0  0
   -1.5000    0.0000    0.0000 C   0  0  0  0  0  0  0  0  0  0  0  0
   -0.7500   -1.2990    0.0000 C   0  0  0  0  0  0  0  0  0  0  0  0
   -1.5000    2.5981    0.0000 C   0  0  0  0  0  0  0  0  0  0  0  0
   -0.7500    3.8971    0.0000 C   0  0  0  0  0  0  0  0  0  0  0  0
   -1.5000    5.1962    0.0000 C   0  0  0  0  0  0  0  0  0  0  0  0
   -3.0000    5.1962    0.0000 C   0  0  0  0  0  0  0  0  0  0  0  0
   -3.7500    3.8971    0.0000 C   0  0  0  0  0  0  0  0  0  0  0  0
   -5.2500    3.8971    0.0000 Cl  0  0  0  0  0  0  0  0  0  0  0  0
   -3.0000    2.5981    0.0000 C   0  0  0  0  0  0  0  0  0  0  0  0
   -0.7418   -6.6520    0.0000 C   0  0  0  0  0  0  0  0  0  0  0  0
   -1.7455   -5.5373    0.0000 O   0  0  0  0  0  0  0  0  0  0  0  0
   -1.0537   -8.1192    0.0000 N   0  0  0  0  0  0  0  0  0  0  0  0
   -2.4240   -8.7293    0.0000 C   0  0  0  0  0  0  0  0  0  0  0  0
   -3.6375   -7.8476    0.0000 C   0  0  0  0  0  0  0  0  0  0  0  0
   -5.0078   -8.4577    0.0000 O   0  0  0  0  0  0  0  0  0  0  0  0
   -6.2213   -7.5761    0.0000 C   0  0  0  0  0  0  0  0  0  0  0  0
   -6.0645   -6.0843    0.0000 C   0  0  0  0  0  0  0  0  0  0  0  0
   -7.2781   -5.2026    0.0000 C   0  0  0  0  0  0  0  0  0  0  0  0
   -8.6484   -5.8127    0.0000 C   0  0  0  0  0  0  0  0  0  0  0  0
   -8.8052   -7.3045    0.0000 C   0  0  0  0  0  0  0  0  0  0  0  0
   -7.5917   -8.1862    0.0000 C   0  0  0  0  0  0  0  0  0  0  0  0
  1  2  1  0
  2  3  1  0
  3  4  2  0
  4  5  1  0
  5  6  1  0
  6  7  1  0
  7  8  1  0
  8  9  1  0
  9 10  1  0
 10 11  1  0
 11 12  1  0
 12 13  1  0
 13 14  1  0
 12 15  1  0
 15 16  2  0
 16 17  1  0
 17 18  2  0
 18 19  1  0
 19 20  1  0
 19 21  2  0
  5 22  1  0
 22 23  2  0
 22 24  1  0
 24 25  1  0
 25 26  1  0
 26 27  1  0
 27 28  1  0
 28 29  2  0
 29 30  1  0
 30 31  2  0
 31 32  1  0
 32 33  2  0
 24  3  1  0
 14  9  1  0
 21 15  1  0
 33 28  1  0
M  END
$$$$
3799
     RDKit          2D

 20 22  0  0  0  0  0  0  0  0999 V2000
   -2.9520   -4.6564    0.0000 C   0  0  0  0  0  0  0  0  0  0  0  0
   -2.6401   -3.1891    0.0000 C   0  0  0  0  0  0  0  0  0  0  0  0
   -1.2135   -2.7256    0.0000 C   0  0  0  0  0  0  0  0  0  0  0  0
   -0.0000   -3.6073    0.0000 C   0  0  0  0  0  0  0  0  0  0  0  0
   -0.0000   -5.1073    0.0000 C   0  0  0  0  0  0  0  0  0  0  0  0
    1.2135   -2.7256    0.0000 N   0  0  0  0  0  0  0  0  0  0  0  0
    0.7500   -1.2990    0.0000 C   0  0  0  0  0  0  0  0  0  0  0  0
    1.5000    0.0000    0.0000 C   0  0  0  0  0  0  0  0  0  0  0  0
    0.7500    1.2990    0.0000 C   0  0  0  0  0  0  0  0  0  0  0  0
   -0.7500    1.2990    0.0000 C   0  0  0  0  0  0  0  0  0  0  0  0
   -1.5000    2.5981    0.0000 C   0  0  0  0  0  0  0  0  0  0  0  0
   -0.7500    3.8971    0.0000 N   0  0  0  0  0  0  0  0  0  0  0  0
    0.7500    3.8971    0.0000 C   0  0  0  0  0  0  0  0  0  0  0  0
    1.5000    5.1962    0.0000 C   0  0  0  0  0  0  0  0  0  0  0  0
    0.7500    6.4952    0.0000 O   0  0  0  0  0  0  0  0  0  0  0  0
   -0.7500    6.4952    0.0000 C   0  0  0  0  0  0  0  0  0  0  0  0
   -1.5000    5.1962    0.0000 C   0  0  0  0  0  0  0  0  0  0  0  0
   -1.5000    0.0000    0.0000 C   0  0  0  0  0  0  0  0  0  0  0  0
   -3.0000    0.0000    0.0000 O   0  0  0  0  0  0  0  0  0  0  0  0
   -0.7500   -1.2990    0.0000 C   0  0  0  0  0  0  0  0  0  0  0  0
  1  2  1  0
  2  3  1  0
  3  4  2  0
  4  5  1  0
  4  6  1  0
  6  7  1  0
  7  8  1  0
  8  9  1  0
  9 10  1  0
 10 11  1  0
 11 12  1  0
 12 13  1  0
 13 14  1  0
 14 15  1  0
 15 16  1  0
 16 17  1  0
 10 18  1  0
 18 19  2  0
 18 20  1  0
 20  3  1  0
 20  7  2  0
 17 12  1  0
M  END
$$$$
374005
     RDKit          2D

 11 11  0  0  0  0  0  0  0  0999 V2000
    3.7500   -1.2990    0.0000 C   0  0  0  0  0  0  0  0  0  0  0  0
    3.0000    0.0000    0.0000 C   0  0  0  0  0  0  0  0  0  0  0  0
    1.5000    0.0000    0.0000 C   0  0  0  0  0  0  0  0  0  0  0  0
    0.7500   -1.2990    0.0000 C   0  0  0  0  0  0  0  0  0  0  0  0
   -0.7500   -1.2990    0.0000 C   0  0  0  0  0  0  0  0  0  0  0  0
   -1.5000    0.0000    0.0000 C   0  0  0  0  0  0  0  0  0  0  0  0
   -0.7500    1.2990    0.0000 C   0  0  0  0  0  0  0  0  0  0  0  0
    0.7500    1.2990    0.0000 N   0  0  0  0  0  0  0  0  0  0  0  0
   -1.5000   -2.5981    0.0000 C   0  0  0  0  0  0  0  0  0  0  0  0
   -0.7500   -3.8971    0.0000 S   0  0  0  0  0  0  0  0  0  0  0  0
   -3.0000   -2.5981    0.0000 N   0  0  0  0  0  0  0  0  0  0  0  0
  1  2  1  0
  2  3  1  0
  3  4  2  0
  4  5  1  0
  5  6  2  0
  6  7  1  0
  7  8  2  0
  5  9  1  0
  9 10  2  0
  9 11  1  0
  8  3  1  0
M  END
$$$$
1117844
     RDKit          2D

 36 41  0  0  0  0  0  0  0  0999 V2000
   -6.8516   -6.6578    0.0000 C   0  0  0  0  0  0  0  0  0  0  0  0
   -5.6381   -7.5395    0.0000 C   0  0  0  0  0  0  0  0  0  0  0  0
   -4.2677   -6.9294    0.0000 C   0  0  0  0  0  0  0  0  0  0  0  0
   -4.1110   -5.4376    0.0000 C   0  0  0  0  0  0  0  0  0  0  0  0
   -2.7406   -4.8275    0.0000 C   0  0  0  0  0  0  0  0  0  0  0  0
   -2.5838   -3.3357    0.0000 C   0  0  0  0  0  0  0  0  0  0  0  0
   -3.7974   -2.4540    0.0000 O   0  0  0  0  0  0  0  0  0  0  0  0
   -1.2135   -2.7256    0.0000 C   0  0  0  0  0  0  0  0  0  0  0  0
   -0.0000   -3.6073    0.0000 C   0  0  0  0  0  0  0  0  0  0  0  0
    1.2135   -2.7256    0.0000 N   0  0  0  0  0  0  0  0  0  0  0  0
    0.7500   -1.2990    0.0000 C   0  0  0  0  0  0  0  0  0  0  0  0
    1.5000    0.0000    0.0000 C   0  0  0  0  0  0  0  0  0  0  0  0
    0.7500    1.2990    0.0000 C   0  0  0  0  0  0  0  0  0  0  0  0
   -0.7500    1.2990    0.0000 C   0  0  0  0  0  0  0  0  0  0  0  0
   -1.5000    0.0000    0.0000 C   0  0  0  0  0  0  0  0  0  0  0  0
   -0.7500   -1.2990    0.0000 C   0  0  0  0  0  0  0  0  0  0  0  0
    1.5000    2.5981    0.0000 C   0  0  0  0  0  0  0  0  0  0  0  0
    2.2500    3.8971    0.0000 N   0  0  0  0  0  0  0  0  0  0  0  0
   -0.1568   -5.0991    0.0000 C   0  0  0  0  0  0  0  0  0  0  0  0
    0.2061   -6.5545    0.0000 C   0  0  0  0  0  0  0  0  0  0  0  0
    1.3396   -4.9944    0.0000 C   0  0  0  0  0  0  0  0  0  0  0  0
   -1.5271   -5.7092    0.0000 C   0  0  0  0  0  0  0  0  0  0  0  0
   -1.6839   -7.2010    0.0000 C   0  0  0  0  0  0  0  0  0  0  0  0
   -3.0542   -7.8111    0.0000 C   0  0  0  0  0  0  0  0  0  0  0  0
   -3.2110   -9.3029    0.0000 N   0  0  0  0  0  0  0  0  0  0  0  0
   -4.5813   -9.9130    0.0000 C   0  0  0  0  0  0  0  0  0  0  0  0
   -4.7381  -11.4047    0.0000 C   0  0  0  0  0  0  0  0  0  0  0  0
   -3.5246  -12.2864    0.0000 C   0  0  0  0  0  0  0  0  0  0  0  0
   -2.1543  -11.6763    0.0000 C   0  0  0  0  0  0  0  0  0  0  0  0
   -1.9975  -10.1845    0.0000 C   0  0  0  0  0  0  0  0  0  0  0  0
   -3.6814  -13.7782    0.0000 N   0  0  0  0  0  0  0  0  0  0  0  0
   -5.0517  -14.3883    0.0000 C   0  0  0  0  0  0  0  0  0  0  0  0
   -5.2085  -15.8801    0.0000 C   0  0  0  0  0  0  0  0  0  0  0  0
   -3.9950  -16.7618    0.0000 O   0  0  0  0  0  0  0  0  0  0  0  0
   -2.6247  -16.1517    0.0000 C   0  0  0  0  0  0  0  0  0  0  0  0
   -2.4679  -14.6599    0.0000 C   0  0  0  0  0  0  0  0  0  0  0  0
  1  2  1  0
  2  3  1  0
  3  4  2  0
  4  5  1  0
  5  6  1  0
  6  7  2  0
  6  8  1  0
  8  9  2  0
  9 10  1  0
 10 11  1  0
 11 12  2  0
 12 13  1  0
 13 14  2  0
 14 15  1  0
 15 16  2  0
 13 17  1  0
 17 18  3  0
  9 19  1  0
 19 20  1  0
 19 21  1  0
 19 22  1  0
 22 23  1  0
 23 24  2  0
 24 25  1  0
 25 26  1  0
 26 27  1  0
 27 28  1  0
 28 29  1  0
 29 30  1  0
 28 31  1  0
 31 32  1  0
 32 33  1  0
 33 34  1  0
 34 35  1  0
 35 36  1  0
 24  3  1  0
 22  5  2  0
 16  8  1  0
 16 11  1  0
 30 25  1  0
 36 31  1  0
M  END
$$$$
19737
     RDKit          2D

 25 27  0  0  0  0  0  0  0  0999 V2000
    3.7500   -1.2990    0.0000 C   0  0  0  0  0  0  0  0  0  0  0  0
    3.0000    0.0000    0.0000 C   0  0  0  0  0  0  0  0  0  0  0  0
    1.5000    0.0000    0.0000 C   0  0  0  0  0  0  0  0  0  0  0  0
    0.7500   -1.2990    0.0000 C   0  0  0  0  0  0  0  0  0  0  0  0
   -0.7500   -1.2990    0.0000 C   0  0  0  0  0  0  0  0  0  0  0  0
   -1.5000    0.0000    0.0000 C   0  0  0  0  0  0  0  0  0  0  0  0
   -3.0000    0.0000    0.0000 C   0  0  0  0  0  0  0  0  0  0  0  0
   -3.7500    1.2990    0.0000 C   0  0  0  0  0  0  0  0  0  0  0  0
   -5.2500    1.2990    0.0000 O   0  0  0  0  0  0  0  0  0  0  0  0
   -6.0000    2.5981    0.0000 C   0  0  0  0  0  0  0  0  0  0  0  0
   -5.2500    3.8971    0.0000 C   0  0  0  0  0  0  0  0  0  0  0  0
   -6.0000    5.1962    0.0000 C   0  0  0  0  0  0  0  0  0  0  0  0
   -7.5000    5.1962    0.0000 C   0  0  0  0  0  0  0  0  0  0  0  0
   -8.2500    6.4952    0.0000 C   0  0  0  0  0  0  0  0  0  0  0  0
   -7.5000    7.7942    0.0000 C   0  0  0  0  0  0  0  0  0  0  0  0
   -8.1101    9.1645    0.0000 S   0  0  0  0  0  0  0  0  0  0  0  0
   -6.9954   10.1682    0.0000 C   0  0  0  0  0  0  0  0  0  0  0  0
   -7.1522   11.6600    0.0000 O   0  0  0  0  0  0  0  0  0  0  0  0
   -5.6963    9.4182    0.0000 N   0  0  0  0  0  0  0  0  0  0  0  0
   -6.0082    7.9510    0.0000 C   0  0  0  0  0  0  0  0  0  0  0  0
   -5.0045    6.8363    0.0000 O   0  0  0  0  0  0  0  0  0  0  0  0
   -8.2500    3.8971    0.0000 C   0  0  0  0  0  0  0  0  0  0  0  0
   -7.5000    2.5981    0.0000 C   0  0  0  0  0  0  0  0  0  0  0  0
   -0.7500    1.2990    0.0000 N   0  0  0  0  0  0  0  0  0  0  0  0
    0.7500    1.2990    0.0000 C   0  0  0  0  0  0  0  0  0  0  0  0
  1  2  1  0
  2  3  1  0
  3  4  2  0
  4  5  1  0
  5  6  2  0
  6  7  1  0
  7  8  1  0
  8  9  1  0
  9 10  1  0
 10 11  2  0
 11 12  1  0
 12 13  2  0
 13 14  1  0
 14 15  1  0
 15 16  1  0
 16 17  1  0
 17 18  2  0
 17 19  1  0
 19 20  1  0
 20 21  2  0
 13 22  1  0
 22 23  2  0
  6 24  1  0
 24 25  2  0
 25  3  1  0
 23 10  1  0
 20 15  1  0
M  END
$$$$
26431
     RDKit          2D

 21 23  0  0  0  0  0  0  0  0999 V2000
    3.7500   -1.2990    0.0000 C   0  0  0  0  0  0  0  0  0  0  0  0
    3.0000    0.0000    0.0000 C   0  0  0  0  0  0  0  0  0  0  0  0
    1.5000    0.0000    0.0000 C   0  0  0  0  0  0  0  0  0  0  0  0
    0.7500   -1.2990    0.0000 C   0  0  0  0  0  0  0  0  0  0  0  0
   -0.7500   -1.2990    0.0000 C   0  0  0  0  0  0  0  0  0  0  0  0
   -1.5000    0.0000    0.0000 C   0  0  0  0  0  0  0  0  0  0  0  0
   -0.7500    1.2990    0.0000 C   0  0  0  0  0  0  0  0  0  0  0  0
   -1.2135    2.7256    0.0000 C   0  0  0  0  0  0  0  0  0  0  0  0
   -2.5838    3.3357    0.0000 C   0  0  0  0  0  0  0  0  0  0  0  0
   -2.7406    4.8275    0.0000 C   0  0  0  0  0  0  0  0  0  0  0  0
   -1.5271    5.7092    0.0000 O   0  0  0  0  0  0  0  0  0  0  0  0
   -0.1568    5.0991    0.0000 C   0  0  0  0  0  0  0  0  0  0  0  0
    1.3396    4.9944    0.0000 C   0  0  0  0  0  0  0  0  0  0  0  0
    2.1783    6.2380    0.0000 C   0  0  0  0  0  0  0  0  0  0  0  0
    0.2061    6.5545    0.0000 C   0  0  0  0  0  0  0  0  0  0  0  0
   -0.8729    7.5965    0.0000 C   0  0  0  0  0  0  0  0  0  0  0  0
   -0.5100    9.0520    0.0000 O   0  0  0  0  0  0  0  0  0  0  0  0
   -2.3148    7.1831    0.0000 O   0  0  0  0  0  0  0  0  0  0  0  0
   -0.0000    3.6073    0.0000 C   0  0  0  0  0  0  0  0  0  0  0  0
    1.2135    2.7256    0.0000 N   0  0  0  0  0  0  0  0  0  0  0  0
    0.7500    1.2990    0.0000 C   0  0  0  0  0  0  0  0  0  0  0  0
  1  2  1  0
  2  3  1  0
  3  4  2  0
  4  5  1  0
  5  6  2  0
  6  7  1  0
  7  8  1  0
  8  9  1  0
  9 10  1  0
 10 11  1  0
 11 12  1  0
 12 13  1  0
 13 14  1  0
 12 15  1  0
 15 16  1  0
 16 17  2  0
 16 18  1  0
 12 19  1  0
 19 20  1  0
 20 21  1  0
 21  3  1  0
 21  7  2  0
 19  8  2  0
M  END
$$$$
428791
     RDKit          2D

 18 19  0  0  0  0  0  0  0  0999 V2000
    3.7500   -1.2990    0.0000 C   0  0  0  0  0  0  0  0  0  0  0  0
    3.0000    0.0000    0.0000 C   0  0  0  0  0  0  0  0  0  0  0  0
    1.5000    0.0000    0.0000 C   0  0  0  0  0  0  0  0  0  0  0  0
    0.7500   -1.2990    0.0000 N   0  0  0  0  0  0  0  0  0  0  0  0
   -0.7500   -1.2990    0.0000 C   0  0  0  0  0  0  0  0  0  0  0  0
   -1.5000   -2.5981    0.0000 O   0  0  0  0  0  0  0  0  0  0  0  0
   -1.5000    0.0000    0.0000 C   0  0  0  0  0  0  0  0  0  0  0  0
   -3.0000    0.0000    0.0000 C   0  0  0  0  0  0  0  0  0  0  0  0
   -3.7500    1.2990    0.0000 C   0  0  0  0  0  0  0  0  0  0  0  0
   -3.0000    2.5981    0.0000 C   0  0  0  0  0  0  0  0  0  0  0  0
   -3.7500    3.8971    0.0000 Cl  0  0  0  0  0  0  0  0  0  0  0  0
   -1.5000    2.5981    0.0000 C   0  0  0  0  0  0  0  0  0  0  0  0
   -0.7500    1.2990    0.0000 C   0  0  0  0  0  0  0  0  0  0  0  0
    0.7500    1.2990    0.0000 N   0  0  0  0  0  0  0  0  0  0  0  0
   -5.2500    1.2990    0.0000 S   0  0  0  0  0  0  0  0  0  0  0  0
   -5.2500    2.7990    0.0000 O   0  0  0  0  0  0  0  0  0  0  0  0
   -5.2500   -0.2010    0.0000 O   0  0  0  0  0  0  0  0  0  0  0  0
   -6.7500    1.2990    0.0000 N   0  0  0  0  0  0  0  0  0  0  0  0
  1  2  1  0
  2  3  1  0
  3  4  1  0
  4  5  1  0
  5  6  2  0
  5  7  1  0
  7  8  2  0
  8  9  1  0
  9 10  2  0
 10 11  1  0
 10 12  1  0
 12 13  2  0
 13 14  1  0
  9 15  1  0
 15 16  2  0
 15 17  2  0
 15 18  1  0
 14  3  1  0
 13  7  1  0
M  END
$$$$
2080
     RDKit          2D

 17 18  0  0  0  0  0  0  0  0999 V2000
    3.7500   -1.2990    0.0000 C   0  0  0  0  0  0  0  0  0  0  0  0
    3.0000    0.0000    0.0000 C   0  0  0  0  0  0  0  0  0  0  0  0
    1.5000    0.0000    0.0000 C   0  0  0  0  0  0  0  0  0  0  0  0
    0.7500   -1.2990    0.0000 N   0  0  0  0  0  0  0  0  0  0  0  0
   -0.7500   -1.2990    0.0000 C   0  0  0  0  0  0  0  0  0  0  0  0
   -1.5000   -2.5981    0.0000 N   0  0  0  0  0  0  0  0  0  0  0  0
   -1.5000    0.0000    0.0000 N   0  0  0  0  0  0  0  0  0  0  0  0
   -0.7500    1.2990    0.0000 C   0  0  0  0  0  0  0  0  0  0  0  0
   -1.5000    2.5981    0.0000 N   0  0  0  0  0  0  0  0  0  0  0  0
    0.7500    1.2990    0.0000 C   0  0  0  0  0  0  0  0  0  0  0  0
    1.5000    2.5981    0.0000 C   0  0  0  0  0  0  0  0  0  0  0  0
    3.0000    2.5981    0.0000 C   0  0  0  0  0  0  0  0  0  0  0  0
    3.7500    3.8971    0.0000 C   0  0  0  0  0  0  0  0  0  0  0  0
    3.0000    5.1962    0.0000 C   0  0  0  0  0  0  0  0  0  0  0  0
    3.7500    6.4952    0.0000 Cl  0  0  0  0  0  0  0  0  0  0  0  0
    1.5000    5.1962    0.0000 C   0  0  0  0  0  0  0  0  0  0  0  0
    0.7500    3.8971    0.0000 C   0  0  0  0  0  0  0  0  0  0  0  0
  1  2  1  0
  2  3  1  0
  3  4  2  0
  4  5  1  0
  5  6  1  0
  5  7  2  0
  7  8  1  0
  8  9  1  0
  8 10  2  0
 10 11  1  0
 11 12  2  0
 12 13  1  0
 13 14  2  0
 14 15  1  0
 14 16  1  0
 16 17  2  0
 10  3  1  0
 17 11  1  0
M  END
$$$$
675212
     RDKit          2D

 22 22  0  0  0  0  0  0  0  0999 V2000
    7.5000   -2.5981    0.0000 C   0  0  0  0  0  0  0  0  0  0  0  0
    6.0000   -2.5981    0.0000 C   0  0  0  0  0  0  0  0  0  0  0  0
    5.2500   -1.2990    0.0000 C   0  0  0  0  0  0  0  0  0  0  0  0
    3.7500   -1.2990    0.0000 C   0  0  0  0  0  0  0  0  0  0  0  0
    3.0000   -2.5981    0.0000 O   0  0  0  0  0  0  0  0  0  0  0  0
    3.0000    0.0000    0.0000 N   0  0  0  0  0  0  0  0  0  0  0  0
    1.5000    0.0000    0.0000 C   0  0  0  0  0  0  0  0  0  0  0  0
    0.7500   -1.2990    0.0000 C   0  0  0  0  0  0  0  0  0  0  0  0
    1.5000   -2.5981    0.0000 I   0  0  0  0  0  0  0  0  0  0  0  0
   -0.7500   -1.2990    0.0000 C   0  0  0  0  0  0  0  0  0  0  0  0
   -1.5000    0.0000    0.0000 C   0  0  0  0  0  0  0  0  0  0  0  0
   -3.0000    0.0000    0.0000 I   0  0  0  0  0  0  0  0  0  0  0  0
   -0.7500    1.2990    0.0000 C   0  0  0  0  0  0  0  0  0  0  0  0
   -1.5000    2.5981    0.0000 C   0  0  0  0  0  0  0  0  0  0  0  0
   -3.0000    2.5981    0.0000 C   0  0  0  0  0  0  0  0  0  0  0  0
   -3.7500    1.2990    0.0000 C   0  0  0  0  0  0  0  0  0  0  0  0
   -5.2500    1.2990    0.0000 C   0  0  0  0  0  0  0  0  0  0  0  0
   -3.7500    3.8971    0.0000 C   0  0  0  0  0  0  0  0  0  0  0  0
   -5.2500    3.8971    0.0000 O   0  0  0  0  0  0  0  0  0  0  0  0
   -3.0000    5.1962    0.0000 O   0  0  0  0  0  0  0  0  0  0  0  0
    0.7500    1.2990    0.0000 C   0  0  0  0  0  0  0  0  0  0  0  0
    1.5000    2.5981    0.0000 I   0  0  0  0  0  0  0  0  0  0  0  0
  1  2  1  0
  2  3  1  0
  3  4  1  0
  4  5  2  0
  4  6  1  0
  6  7  1  0
  7  8  2  0
  8  9  1  0
  8 10  1  0
 10 11  2  0
 11 12  1  0
 11 13  1  0
 13 14  1  0
 14 15  1  0
 15 16  1  0
 16 17  1  0
 15 18  1  0
 18 19  2  0
 18 20  1  0
 13 21  2  0
 21 22  1  0
 21  7  1  0
M  END
$$$$
27347
     RDKit          2D

 24 24  0  0  0  0  0  0  0  0999 V2000
    7.5000   -2.5981    0.0000 C   0  0  0  0  0  0  0  0  0  0  0  0
    6.0000   -2.5981    0.0000 C   0  0  0  0  0  0  0  0  0  0  0  0
    5.2500   -1.2990    0.0000 C   0  0  0  0  0  0  0  0  0  0  0  0
    3.7500   -1.2990    0.0000 C   0  0  0  0  0  0  0  0  0  0  0  0
    3.0000   -2.5981    0.0000 O   0  0  0  0  0  0  0  0  0  0  0  0
    3.0000    0.0000    0.0000 N   0  0  0  0  0  0  0  0  0  0  0  0
    1.5000    0.0000    0.0000 C   0  0  0  0  0  0  0  0  0  0  0  0
    0.7500   -1.2990    0.0000 C   0  0  0  0  0  0  0  0  0  0  0  0
   -0.7500   -1.2990    0.0000 C   0  0  0  0  0  0  0  0  0  0  0  0
   -1.5000    0.0000    0.0000 C   0  0  0  0  0  0  0  0  0  0  0  0
   -3.0000    0.0000    0.0000 O   0  0  0  0  0  0  0  0  0  0  0  0
   -3.7500   -1.2990    0.0000 C   0  0  0  0  0  0  0  0  0  0  0  0
   -5.2500   -1.2990    0.0000 C   0  0  0  0  0  0  0  0  0  0  0  0
   -6.0000    0.0000    0.0000 O   0  0  0  0  0  0  0  0  0  0  0  0
   -6.0000   -2.5981    0.0000 C   0  0  0  0  0  0  0  0  0  0  0  0
   -7.5000   -2.5981    0.0000 N   0  0  0  0  0  0  0  0  0  0  0  0
   -8.2500   -3.8971    0.0000 C   0  0  0  0  0  0  0  0  0  0  0  0
   -9.7500   -3.8971    0.0000 C   0  0  0  0  0  0  0  0  0  0  0  0
   -7.5000   -5.1962    0.0000 C   0  0  0  0  0  0  0  0  0  0  0  0
   -0.7500    1.2990    0.0000 C   0  0  0  0  0  0  0  0  0  0  0  0
    0.7500    1.2990    0.0000 C   0  0  0  0  0  0  0  0  0  0  0  0
   -1.5000    2.5981    0.0000 C   0  0  0  0  0  0  0  0  0  0  0  0
   -3.0000    2.5981    0.0000 O   0  0  0  0  0  0  0  0  0  0  0  0
   -0.7500    3.8971    0.0000 C   0  0  0  0  0  0  0  0  0  0  0  0
  1  2  1  0
  2  3  1  0
  3  4  1  0
  4  5  2  0
  4  6  1  0
  6  7  1  0
  7  8  2  0
  8  9  1  0
  9 10  2  0
 10 11  1  0
 11 12  1  0
 12 13  1  0
 13 14  1  0
 13 15  1  0
 15 16  1  0
 16 17  1  0
 17 18  1  0
 17 19  1  0
 10 20  1  0
 20 21  2  0
 20 22  1  0
 22 23  2  0
 22 24  1  0
 21  7  1  0
M  END
$$$$
99389
     RDKit          2D

 15 14  0  0  0  0  0  0  0  0999 V2000
    0.0000    0.0000    0.0000 C   0  0  0  0  0  0  0  0  0  0  0  0
    1.2990    0.7500    0.0000 C   0  0  0  0  0  0  0  0  0  0  0  0
    2.5981   -0.0000    0.0000 C   0  0  0  0  0  0  0  0  0  0  0  0
    3.8971    0.7500    0.0000 C   0  0  0  0  0  0  0  0  0  0  0  0
    5.1962    1.5000    0.0000 C   0  0  0  0  0  0  0  0  0  0  0  0
    3.1471    2.0490    0.0000 C   0  0  0  0  0  0  0  0  0  0  0  0
    3.8971    3.3481    0.0000 O   0  0  0  0  0  0  0  0  0  0  0  0
    3.1471    4.6471    0.0000 C   0  0  0  0  0  0  0  0  0  0  0  0
    1.6471    4.6471    0.0000 O   0  0  0  0  0  0  0  0  0  0  0  0
    3.8971    5.9462    0.0000 N   0  0  0  0  0  0  0  0  0  0  0  0
    4.6471   -0.5490    0.0000 C   0  0  0  0  0  0  0  0  0  0  0  0
    6.1471   -0.5490    0.0000 O   0  0  0  0  0  0  0  0  0  0  0  0
    6.8971   -1.8481    0.0000 C   0  0  0  0  0  0  0  0  0  0  0  0
    6.1471   -3.1471    0.0000 O   0  0  0  0  0  0  0  0  0  0  0  0
    8.3971   -1.8481    0.0000 N   0  0  0  0  0  0  0  0  0  0  0  0
  1  2  1  0
  2  3  1  0
  3  4  1  0
  4  5  1  0
  4  6  1  0
  6  7  1  0
  7  8  1  0
  8  9  2  0
  8 10  1  0
  4 11  1  0
 11 12  1  0
 12 13  1  0
 13 14  2  0
 13 15  1  0
M  END
$$$$
230249
     RDKit          2D

 18 17  0  0  0  0  0  0  0  0999 V2000
    0.0000    0.0000    0.0000 C   0  0  0  0  0  0  0  0  0  0  0  0
    1.2990    0.7500    0.0000 C   0  0  0  0  0  0  0  0  0  0  0  0
    2.5981   -0.0000    0.0000 C   0  0  0  0  0  0  0  0  0  0  0  0
    3.8971    0.7500    0.0000 C   0  0  0  0  0  0  0  0  0  0  0  0
    5.1962    1.5000    0.0000 C   0  0  0  0  0  0  0  0  0  0  0  0
    3.1471    2.0490    0.0000 C   0  0  0  0  0  0  0  0  0  0  0  0
    3.8971    3.3481    0.0000 O   0  0  0  0  0  0  0  0  0  0  0  0
    3.1471    4.6471    0.0000 C   0  0  0  0  0  0  0  0  0  0  0  0
    1.6471    4.6471    0.0000 O   0  0  0  0  0  0  0  0  0  0  0  0
    3.8971    5.9462    0.0000 N   0  0  0  0  0  0  0  0  0  0  0  0
    4.6471   -0.5490    0.0000 C   0  0  0  0  0  0  0  0  0  0  0  0
    6.1471   -0.5490    0.0000 O   0  0  0  0  0  0  0  0  0  0  0  0
    6.8971   -1.8481    0.0000 C   0  0  0  0  0  0  0  0  0  0  0  0
    6.1471   -3.1471    0.0000 O   0  0  0  0  0  0  0  0  0  0  0  0
    8.3971   -1.8481    0.0000 N   0  0  0  0  0  0  0  0  0  0  0  0
    9.1471   -3.1471    0.0000 C   0  0  0  0  0  0  0  0  0  0  0  0
   10.6471   -3.1471    0.0000 C   0  0  0  0  0  0  0  0  0  0  0  0
    8.3971   -4.4462    0.0000 C   0  0  0  0  0  0  0  0  0  0  0  0
  1  2  1  0
  2  3  1  0
  3  4  1  0
  4  5  1  0
  4  6  1  0
  6  7  1  0
  7  8  1  0
  8  9  2  0
  8 10  1  0
  4 11  1  0
 11 12  1  0
 12 13  1  0
 13 14  2  0
 13 15  1  0
 15 16  1  0
 16 17  1  0
 16 18  1  0
M  END
$$$$
2327
     RDKit          2D

 16 16  0  0  0  0  0  0  0  0999 V2000
    6.6172   -0.9023    0.0000 C   0  0  0  0  0  0  0  0  0  0  0  0
    5.2077   -1.4153    0.0000 C   0  0  0  0  0  0  0  0  0  0  0  0
    4.0586   -0.4512    0.0000 C   0  0  0  0  0  0  0  0  0  0  0  0
    2.6491   -0.9642    0.0000 C   0  0  0  0  0  0  0  0  0  0  0  0
    2.3886   -2.4414    0.0000 C   0  0  0  0  0  0  0  0  0  0  0  0
    1.5000    0.0000    0.0000 C   0  0  0  0  0  0  0  0  0  0  0  0
    2.6491    0.9642    0.0000 C   0  0  0  0  0  0  0  0  0  0  0  0
    4.0586    0.4512    0.0000 C   0  0  0  0  0  0  0  0  0  0  0  0
    0.7500   -1.2990    0.0000 C   0  0  0  0  0  0  0  0  0  0  0  0
    1.5000   -2.5981    0.0000 O   0  0  0  0  0  0  0  0  0  0  0  0
   -0.7500   -1.2990    0.0000 N   0  0  0  0  0  0  0  0  0  0  0  0
   -1.5000    0.0000    0.0000 C   0  0  0  0  0  0  0  0  0  0  0  0
   -3.0000    0.0000    0.0000 O   0  0  0  0  0  0  0  0  0  0  0  0
   -0.7500    1.2990    0.0000 N   0  0  0  0  0  0  0  0  0  0  0  0
    0.7500    1.2990    0.0000 C   0  0  0  0  0  0  0  0  0  0  0  0
    1.5000    2.5981    0.0000 O   0  0  0  0  0  0  0  0  0  0  0  0
  1  2  1  0
  2  3  1  0
  3  4  1  0
  4  5  1  0
  4  6  1  0
  6  7  1  0
  7  8  1  0
  6  9  1  0
  9 10  2  0
  9 11  1  0
 11 12  1  0
 12 13  2  0
 12 14  1  0
 14 15  1  0
 15 16  2  0
 15  6  1  0
M  END
$$$$
2326
     RDKit          2D

 17 17  0  0  0  0  0  0  0  0999 V2000
    6.6172   -0.9023    0.0000 C   0  0  0  0  0  0  0  0  0  0  0  0
    5.2077   -1.4153    0.0000 C   0  0  0  0  0  0  0  0  0  0  0  0
    4.0586   -0.4512    0.0000 C   0  0  0  0  0  0  0  0  0  0  0  0
    2.6491   -0.9642    0.0000 C   0  0  0  0  0  0  0  0  0  0  0  0
    2.3886   -2.4414    0.0000 C   0  0  0  0  0  0  0  0  0  0  0  0
    1.5000    0.0000    0.0000 C   0  0  0  0  0  0  0  0  0  0  0  0
    2.6491    0.9642    0.0000 C   0  0  0  0  0  0  0  0  0  0  0  0
    4.0586    0.4512    0.0000 C   0  0  0  0  0  0  0  0  0  0  0  0
    5.2077    1.4153    0.0000 C   0  0  0  0  0  0  0  0  0  0  0  0
    0.7500   -1.2990    0.0000 C   0  0  0  0  0  0  0  0  0  0  0  0
    1.5000   -2.5981    0.0000 O   0  0  0  0  0  0  0  0  0  0  0  0
   -0.7500   -1.2990    0.0000 N   0  0  0  0  0  0  0  0  0  0  0  0
   -1.5000    0.0000    0.0000 C   0  0  0  0  0  0  0  0  0  0  0  0
   -3.0000    0.0000    0.0000 O   0  0  0  0  0  0  0  0  0  0  0  0
   -0.7500    1.2990    0.0000 N   0  0  0  0  0  0  0  0  0  0  0  0
    0.7500    1.2990    0.0000 C   0  0  0  0  0  0  0  0  0  0  0  0
    1.5000    2.5981    0.0000 O   0  0  0  0  0  0  0  0  0  0  0  0
  1  2  1  0
  2  3  1  0
  3  4  1  0
  4  5  1  0
  4  6  1  0
  6  7  1  0
  7  8  1  0
  8  9  2  0
  6 10  1  0
 10 11  2  0
 10 12  1  0
 12 13  1  0
 13 14  2  0
 13 15  1  0
 15 16  1  0
 16 17  2  0
 16  6  1  0
M  END
$$$$
15217
     RDKit          2D

 10  9  0  0  0  0  0  0  0  0999 V2000
    0.0000    0.0000    0.0000 C   0  0  0  0  0  0  0  0  0  0  0  0
    1.2990    0.7500    0.0000 C   0  0  0  0  0  0  0  0  0  0  0  0
    2.5981   -0.0000    0.0000 C   0  0  0  0  0  0  0  0  0  0  0  0
    3.8971    0.7500    0.0000 C   0  0  0  0  0  0  0  0  0  0  0  0
    5.1962   -0.0000    0.0000 C   0  0  0  0  0  0  0  0  0  0  0  0
    6.4952    0.7500    0.0000 C   0  0  0  0  0  0  0  0  0  0  0  0
    7.7942   -0.0000    0.0000 C   0  0  0  0  0  0  0  0  0  0  0  0
    3.8971    2.2500    0.0000 C   0  0  0  0  0  0  0  0  0  0  0  0
    2.5981    3.0000    0.0000 O   0  0  0  0  0  0  0  0  0  0  0  0
    5.1962    3.0000    0.0000 O   0  0  0  0  0  0  0  0  0  0  0  0
  1  2  1  0
  2  3  1  0
  3  4  1  0
  4  5  1  0
  5  6  1  0
  6  7  1  0
  4  8  1  0
  8  9  2  0
  8 10  1  0
M  END
$$$$
660560
     RDKit          2D

 20 21  0  0  0  0  0  0  0  0999 V2000
   -5.2592    8.7438    0.0000 C   0  0  0  0  0  0  0  0  0  0  0  0
   -5.4160    7.2521    0.0000 C   0  0  0  0  0  0  0  0  0  0  0  0
   -4.2025    6.3704    0.0000 C   0  0  0  0  0  0  0  0  0  0  0  0
   -4.3593    4.8786    0.0000 C   0  0  0  0  0  0  0  0  0  0  0  0
   -5.7296    4.2685    0.0000 C   0  0  0  0  0  0  0  0  0  0  0  0
   -6.9431    5.1502    0.0000 C   0  0  0  0  0  0  0  0  0  0  0  0
   -8.3134    4.5401    0.0000 C   0  0  0  0  0  0  0  0  0  0  0  0
   -3.1458    3.9969    0.0000 C   0  0  0  0  0  0  0  0  0  0  0  0
   -1.7754    4.6070    0.0000 O   0  0  0  0  0  0  0  0  0  0  0  0
   -3.3025    2.5051    0.0000 O   0  0  0  0  0  0  0  0  0  0  0  0
   -2.0890    1.6235    0.0000 C   0  0  0  0  0  0  0  0  0  0  0  0
   -0.7187    2.2336    0.0000 C   0  0  0  0  0  0  0  0  0  0  0  0
    0.3943    1.2135    0.0000 C   0  0  0  0  0  0  0  0  0  0  0  0
    1.2760    0.0000    0.0000 C   0  0  0  0  0  0  0  0  0  0  0  0
    0.3943   -1.2135    0.0000 C   0  0  0  0  0  0  0  0  0  0  0  0
   -1.0323   -0.7500    0.0000 C   0  0  0  0  0  0  0  0  0  0  0  0
   -2.2458    0.1317    0.0000 C   0  0  0  0  0  0  0  0  0  0  0  0
   -1.0323    0.7500    0.0000 N   0  0  0  0  0  4  0  0  0  0  0  0
   -2.5177    0.9588    0.0000 C   0  0  0  0  0  0  0  0  0  0  0  0
   -1.3818    1.4665    0.0000 C   0  0  0  0  0  0  0  0  0  0  0  0
  1  2  1  0
  2  3  1  0
  3  4  1  0
  4  5  1  0
  5  6  1  0
  6  7  1  0
  4  8  1  0
  8  9  2  0
  8 10  1  0
 11 10  1  1
 11 12  1  0
 13 12  1  1
 13 14  1  0
 14 15  1  0
 16 15  1  1
 16 17  1  0
 16 18  1  0
 18 19  1  0
 18 20  1  0
 17 11  1  0
 18 13  1  0
M  CHG  1  18   1
M  END
$$$$
421208
     RDKit          2D

 11 11  0  0  0  0  0  0  0  0999 V2000
    5.2500   -1.2990    0.0000 C   0  0  0  0  0  0  0  0  0  0  0  0
    3.7500   -1.2990    0.0000 C   0  0  0  0  0  0  0  0  0  0  0  0
    3.0000    0.0000    0.0000 C   0  0  0  0  0  0  0  0  0  0  0  0
    1.5000    0.0000    0.0000 C   0  0  0  0  0  0  0  0  0  0  0  0
    0.7500   -1.2990    0.0000 C   0  0  0  0  0  0  0  0  0  0  0  0
   -0.7500   -1.2990    0.0000 C   0  0  0  0  0  0  0  0  0  0  0  0
   -1.5000   -2.5981    0.0000 O   0  0  0  0  0  0  0  0  0  0  0  0
   -1.5000    0.0000    0.0000 N   0  0  0  0  0  0  0  0  0  0  0  0
   -0.7500    1.2990    0.0000 C   0  0  0  0  0  0  0  0  0  0  0  0
   -1.5000    2.5981    0.0000 S   0  0  0  0  0  0  0  0  0  0  0  0
    0.7500    1.2990    0.0000 N   0  0  0  0  0  0  0  0  0  0  0  0
  1  2  1  0
  2  3  1  0
  3  4  1  0
  4  5  2  0
  5  6  1  0
  6  7  2  0
  6  8  1  0
  8  9  1  0
  9 10  2  0
  9 11  1  0
 11  4  1  0
M  END
$$$$
674643
     RDKit          2D

 41 45  0  0  0  0  0  0  0  0999 V2000
   -4.2164   -2.1363    0.0000 C   0  0  0  0  0  0  0  0  0  0  0  0
   -3.2127   -3.2511    0.0000 C   0  0  0  0  0  0  0  0  0  0  0  0
   -1.7455   -2.9392    0.0000 C   0  0  0  0  0  0  0  0  0  0  0  0
   -0.7418   -4.0539    0.0000 C   0  0  0  0  0  0  0  0  0  0  0  0
   -1.0537   -5.5211    0.0000 N   0  0  0  0  0  0  0  0  0  0  0  0
    0.2454   -6.2711    0.0000 C   0  0  0  0  0  0  0  0  0  0  0  0
    1.3601   -5.2674    0.0000 C   0  0  0  0  0  0  0  0  0  0  0  0
    2.8273   -5.5793    0.0000 C   0  0  0  0  0  0  0  0  0  0  0  0
    3.8310   -4.4646    0.0000 O   0  0  0  0  0  0  0  0  0  0  0  0
    3.2909   -7.0059    0.0000 O   0  0  0  0  0  0  0  0  0  0  0  0
    4.7581   -7.3178    0.0000 C   0  0  0  0  0  0  0  0  0  0  0  0
    5.2216   -8.7443    0.0000 C   0  0  0  0  0  0  0  0  0  0  0  0
    6.6482   -9.2079    0.0000 C   0  0  0  0  0  0  0  0  0  0  0  0
    7.8617   -8.3262    0.0000 C   0  0  0  0  0  0  0  0  0  0  0  0
    6.6482  -10.7079    0.0000 O   0  0  0  0  0  0  0  0  0  0  0  0
    5.2216  -11.1714    0.0000 C   0  0  0  0  0  0  0  0  0  0  0  0
    4.7581  -12.5980    0.0000 O   0  0  0  0  0  0  0  0  0  0  0  0
    4.3399   -9.9579    0.0000 O   0  0  0  0  0  0  0  0  0  0  0  0
    0.7500   -3.8971    0.0000 N   0  0  0  0  0  0  0  0  0  0  0  0
    1.5000   -2.5981    0.0000 C   0  0  0  0  0  0  0  0  0  0  0  0
    0.7500   -1.2990    0.0000 C   0  0  0  0  0  0  0  0  0  0  0  0
    1.5000    0.0000    0.0000 C   0  0  0  0  0  0  0  0  0  0  0  0
    0.7500    1.2990    0.0000 C   0  0  0  0  0  0  0  0  0  0  0  0
   -0.7500    1.2990    0.0000 C   0  0  0  0  0  0  0  0  0  0  0  0
   -1.5000    0.0000    0.0000 C   0  0  0  0  0  0  0  0  0  0  0  0
   -0.7500   -1.2990    0.0000 C   0  0  0  0  0  0  0  0  0  0  0  0
   -1.5000    2.5981    0.0000 C   0  0  0  0  0  0  0  0  0  0  0  0
   -0.7500    3.8971    0.0000 C   0  0  0  0  0  0  0  0  0  0  0  0
   -1.5000    5.1962    0.0000 C   0  0  0  0  0  0  0  0  0  0  0  0
   -3.0000    5.1962    0.0000 C   0  0  0  0  0  0  0  0  0  0  0  0
   -3.7500    3.8971    0.0000 C   0  0  0  0  0  0  0  0  0  0  0  0
   -3.0000    2.5981    0.0000 C   0  0  0  0  0  0  0  0  0  0  0  0
   -3.7500    1.2990    0.0000 C   0  0  0  0  0  0  0  0  0  0  0  0
   -3.1399   -0.0713    0.0000 N   0  0  0  0  0  0  0  0  0  0  0  0
   -4.2546   -1.0750    0.0000 N   0  0  0  0  0  0  0  0  0  0  0  0
   -5.5537   -0.3250    0.0000 N   0  0  0  0  0  0  0  0  0  0  0  0
   -5.2418    1.1422    0.0000 N   0  0  0  0  0  0  0  0  0  0  0  0
    0.4022   -7.7629    0.0000 C   0  0  0  0  0  0  0  0  0  0  0  0
    1.8940   -7.6061    0.0000 C   0  0  0  0  0  0  0  0  0  0  0  0
   -1.0896   -7.9197    0.0000 C   0  0  0  0  0  0  0  0  0  0  0  0
    0.5590   -9.2547    0.0000 O   0  0  0  0  0  0  0  0  0  0  0  0
  1  2  1  0
  2  3  1  0
  3  4  1  0
  4  5  2  0
  5  6  1  0
  6  7  2  0
  7  8  1  0
  8  9  2  0
  8 10  1  0
 10 11  1  0
 11 12  1  0
 12 13  2  0
 13 14  1  0
 13 15  1  0
 15 16  1  0
 16 17  2  0
 16 18  1  0
  7 19  1  0
 19 20  1  0
 20 21  1  0
 21 22  2  0
 22 23  1  0
 23 24  2  0
 24 25  1  0
 25 26  2  0
 24 27  1  0
 27 28  2  0
 28 29  1  0
 29 30  2  0
 30 31  1  0
 31 32  2  0
 32 33  1  0
 33 34  2  0
 34 35  1  0
 35 36  2  0
 36 37  1  0
  6 38  1  0
 38 39  1  0
 38 40  1  0
 38 41  1  0
 19  4  1  0
 18 12  1  0
 26 21  1  0
 32 27  1  0
 37 33  1  0
M  END
$$$$
421326
     RDKit          2D

 34 37  0  0  0  0  0  0  0  0999 V2000
   -4.3786   -5.1199    0.0000 C   0  0  0  0  0  0  0  0  0  0  0  0
   -2.9520   -4.6564    0.0000 C   0  0  0  0  0  0  0  0  0  0  0  0
   -2.6401   -3.1891    0.0000 C   0  0  0  0  0  0  0  0  0  0  0  0
   -1.2135   -2.7256    0.0000 C   0  0  0  0  0  0  0  0  0  0  0  0
   -0.0000   -3.6073    0.0000 N   0  0  0  0  0  0  0  0  0  0  0  0
    1.2135   -2.7256    0.0000 C   0  0  0  0  0  0  0  0  0  0  0  0
    2.6401   -3.1891    0.0000 C   0  0  0  0  0  0  0  0  0  0  0  0
    0.7500   -1.2990    0.0000 C   0  0  0  0  0  0  0  0  0  0  0  0
    1.5000    0.0000    0.0000 C   0  0  0  0  0  0  0  0  0  0  0  0
    3.0000    0.0000    0.0000 O   0  0  0  0  0  0  0  0  0  0  0  0
    0.7500    1.2990    0.0000 N   0  0  0  0  0  0  0  0  0  0  0  0
   -0.7500    1.2990    0.0000 C   0  0  0  0  0  0  0  0  0  0  0  0
   -1.5000    0.0000    0.0000 N   0  0  0  0  0  0  0  0  0  0  0  0
   -0.7500   -1.2990    0.0000 N   0  0  0  0  0  0  0  0  0  0  0  0
   -1.5000    2.5981    0.0000 C   0  0  0  0  0  0  0  0  0  0  0  0
   -0.7500    3.8971    0.0000 C   0  0  0  0  0  0  0  0  0  0  0  0
   -1.5000    5.1962    0.0000 C   0  0  0  0  0  0  0  0  0  0  0  0
   -3.0000    5.1962    0.0000 C   0  0  0  0  0  0  0  0  0  0  0  0
   -3.7500    3.8971    0.0000 C   0  0  0  0  0  0  0  0  0  0  0  0
   -3.0000    2.5981    0.0000 C   0  0  0  0  0  0  0  0  0  0  0  0
   -3.7500    1.2990    0.0000 O   0  0  0  0  0  0  0  0  0  0  0  0
   -5.2500    1.2990    0.0000 C   0  0  0  0  0  0  0  0  0  0  0  0
   -6.0000    0.0000    0.0000 C   0  0  0  0  0  0  0  0  0  0  0  0
   -0.7500    6.4952    0.0000 S   0  0  0  0  0  0  0  0  0  0  0  0
    0.5490    5.7452    0.0000 O   0  0  0  0  0  0  0  0  0  0  0  0
   -2.0490    7.2452    0.0000 O   0  0  0  0  0  0  0  0  0  0  0  0
    0.0000    7.7942    0.0000 N   0  0  0  0  0  0  0  0  0  0  0  0
    1.5000    7.7942    0.0000 C   0  0  0  0  0  0  0  0  0  0  0  0
    2.2500    9.0933    0.0000 C   0  0  0  0  0  0  0  0  0  0  0  0
    1.5000   10.3923    0.0000 N   0  0  0  0  0  0  0  0  0  0  0  0
    2.2500   11.6913    0.0000 C   0  0  0  0  0  0  0  0  0  0  0  0
    3.7500   11.6913    0.0000 C   0  0  0  0  0  0  0  0  0  0  0  0
   -0.0000   10.3923    0.0000 C   0  0  0  0  0  0  0  0  0  0  0  0
   -0.7500    9.0933    0.0000 C   0  0  0  0  0  0  0  0  0  0  0  0
  1  2  1  0
  2  3  1  0
  3  4  1  0
  4  5  2  0
  5  6  1  0
  6  7  1  0
  6  8  2  0
  8  9  1  0
  9 10  2  0
  9 11  1  0
 11 12  2  0
 12 13  1  0
 13 14  1  0
 12 15  1  0
 15 16  2  0
 16 17  1  0
 17 18  2  0
 18 19  1  0
 19 20  2  0
 20 21  1  0
 21 22  1  0
 22 23  1  0
 17 24  1  0
 24 25  2  0
 24 26  2  0
 24 27  1  0
 27 28  1  0
 28 29  1  0
 29 30  1  0
 30 31  1  0
 31 32  1  0
 30 33  1  0
 33 34  1  0
 14  4  1  0
 14  8  1  0
 20 15  1  0
 34 27  1  0
M  END
$$$$
116949
     RDKit          2D

 39 44  0  0  0  0  0  0  0  0999 V2000
   -1.2990   -7.3573    0.0000 C   0  0  0  0  0  0  0  0  0  0  0  0
   -1.2990   -5.8573    0.0000 C   0  0  0  0  0  0  0  0  0  0  0  0
   -0.0000   -5.1073    0.0000 C   0  0  0  0  0  0  0  0  0  0  0  0
   -0.0000   -3.6073    0.0000 C   0  0  0  0  0  0  0  0  0  0  0  0
    1.2135   -2.7256    0.0000 N   0  0  0  0  0  0  0  0  0  0  0  0
    0.7500   -1.2990    0.0000 C   0  0  0  0  0  0  0  0  0  0  0  0
    1.5000    0.0000    0.0000 C   0  0  0  0  0  0  0  0  0  0  0  0
    3.0000    0.0000    0.0000 C   0  0  0  0  0  0  0  0  0  0  0  0
    0.7500    1.2990    0.0000 C   0  0  0  0  0  0  0  0  0  0  0  0
   -0.7500    1.2990    0.0000 C   0  0  0  0  0  0  0  0  0  0  0  0
   -1.5000    0.0000    0.0000 C   0  0  0  0  0  0  0  0  0  0  0  0
   -0.7500   -1.2990    0.0000 C   0  0  0  0  0  0  0  0  0  0  0  0
   -1.2135   -2.7256    0.0000 N   0  0  0  0  0  0  0  0  0  0  0  0
   -2.6401   -3.1891    0.0000 C   0  0  0  0  0  0  0  0  0  0  0  0
   -3.7548   -2.1855    0.0000 C   0  0  0  0  0  0  0  0  0  0  0  0
   -3.4430   -0.7182    0.0000 C   0  0  0  0  0  0  0  0  0  0  0  0
   -4.5577    0.2855    0.0000 C   0  0  0  0  0  0  0  0  0  0  0  0
   -5.9843   -0.1781    0.0000 C   0  0  0  0  0  0  0  0  0  0  0  0
   -6.2961   -1.6453    0.0000 C   0  0  0  0  0  0  0  0  0  0  0  0
   -5.1814   -2.6490    0.0000 C   0  0  0  0  0  0  0  0  0  0  0  0
   -7.0990    0.8256    0.0000 C   0  0  0  0  0  0  0  0  0  0  0  0
   -6.7871    2.2929    0.0000 C   0  0  0  0  0  0  0  0  0  0  0  0
   -7.9018    3.2966    0.0000 C   0  0  0  0  0  0  0  0  0  0  0  0
   -9.3284    2.8330    0.0000 C   0  0  0  0  0  0  0  0  0  0  0  0
   -9.6403    1.3658    0.0000 C   0  0  0  0  0  0  0  0  0  0  0  0
   -8.5256    0.3621    0.0000 C   0  0  0  0  0  0  0  0  0  0  0  0
   -8.8374   -1.1051    0.0000 C   0  0  0  0  0  0  0  0  0  0  0  0
   -7.7227   -2.1088    0.0000 O   0  0  0  0  0  0  0  0  0  0  0  0
  -10.2640   -1.5686    0.0000 O   0  0  0  0  0  0  0  0  0  0  0  0
   -1.5000    2.5981    0.0000 C   0  0  0  0  0  0  0  0  0  0  0  0
   -0.8899    3.9684    0.0000 N   0  0  0  0  0  0  0  0  0  0  0  0
   -2.0046    4.9721    0.0000 C   0  0  0  0  0  0  0  0  0  0  0  0
   -2.0046    6.4721    0.0000 C   0  0  0  0  0  0  0  0  0  0  0  0
   -3.3037    7.2221    0.0000 C   0  0  0  0  0  0  0  0  0  0  0  0
   -4.6027    6.4721    0.0000 C   0  0  0  0  0  0  0  0  0  0  0  0
   -4.6027    4.9721    0.0000 C   0  0  0  0  0  0  0  0  0  0  0  0
   -3.3037    4.2221    0.0000 C   0  0  0  0  0  0  0  0  0  0  0  0
   -2.9918    2.7549    0.0000 N   0  0  0  0  0  0  0  0  0  0  0  0
   -3.9955    1.6402    0.0000 C   0  0  0  0  0  0  0  0  0  0  0  0
  1  2  1  0
  2  3  1  0
  3  4  1  0
  4  5  2  0
  5  6  1  0
  6  7  2  0
  7  8  1  0
  7  9  1  0
  9 10  2  0
 10 11  1  0
 11 12  2  0
 12 13  1  0
 13 14  1  0
 14 15  1  0
 15 16  2  0
 16 17  1  0
 17 18  2  0
 18 19  1  0
 19 20  2  0
 18 21  1  0
 21 22  2  0
 22 23  1  0
 23 24  2  0
 24 25  1  0
 25 26  2  0
 26 27  1  0
 27 28  2  0
 27 29  1  0
 10 30  1  0
 30 31  2  0
 31 32  1  0
 32 33  2  0
 33 34  1  0
 34 35  2  0
 35 36  1  0
 36 37  2  0
 37 38  1  0
 38 39  1  0
 13  4  1  0
 12  6  1  0
 20 15  1  0
 26 21  1  0
 38 30  1  0
 37 32  1  0
M  END
$$$$
410802
     RDKit          2D

 33 36  0  0  0  0  0  0  0  0999 V2000
   -4.3786   -5.1199    0.0000 C   0  0  0  0  0  0  0  0  0  0  0  0
   -2.9520   -4.6564    0.0000 C   0  0  0  0  0  0  0  0  0  0  0  0
   -2.6401   -3.1891    0.0000 C   0  0  0  0  0  0  0  0  0  0  0  0
   -1.2135   -2.7256    0.0000 C   0  0  0  0  0  0  0  0  0  0  0  0
   -0.0000   -3.6073    0.0000 N   0  0  0  0  0  0  0  0  0  0  0  0
    1.2135   -2.7256    0.0000 N   0  0  0  0  0  0  0  0  0  0  0  0
    2.6401   -3.1891    0.0000 C   0  0  0  0  0  0  0  0  0  0  0  0
    0.7500   -1.2990    0.0000 C   0  0  0  0  0  0  0  0  0  0  0  0
    1.5000    0.0000    0.0000 C   0  0  0  0  0  0  0  0  0  0  0  0
    3.0000    0.0000    0.0000 O   0  0  0  0  0  0  0  0  0  0  0  0
    0.7500    1.2990    0.0000 N   0  0  0  0  0  0  0  0  0  0  0  0
   -0.7500    1.2990    0.0000 C   0  0  0  0  0  0  0  0  0  0  0  0
   -1.5000    0.0000    0.0000 N   0  0  0  0  0  0  0  0  0  0  0  0
   -0.7500   -1.2990    0.0000 C   0  0  0  0  0  0  0  0  0  0  0  0
   -1.5000    2.5981    0.0000 C   0  0  0  0  0  0  0  0  0  0  0  0
   -0.7500    3.8971    0.0000 C   0  0  0  0  0  0  0  0  0  0  0  0
   -1.5000    5.1962    0.0000 C   0  0  0  0  0  0  0  0  0  0  0  0
   -3.0000    5.1962    0.0000 C   0  0  0  0  0  0  0  0  0  0  0  0
   -3.7500    3.8971    0.0000 C   0  0  0  0  0  0  0  0  0  0  0  0
   -3.0000    2.5981    0.0000 C   0  0  0  0  0  0  0  0  0  0  0  0
   -3.7500    1.2990    0.0000 O   0  0  0  0  0  0  0  0  0  0  0  0
   -5.2500    1.2990    0.0000 C   0  0  0  0  0  0  0  0  0  0  0  0
   -6.0000    0.0000    0.0000 C   0  0  0  0  0  0  0  0  0  0  0  0
   -0.7500    6.4952    0.0000 S   0  0  0  0  0  0  0  0  0  0  0  0
    0.5490    5.7452    0.0000 O   0  0  0  0  0  0  0  0  0  0  0  0
   -2.0490    7.2452    0.0000 O   0  0  0  0  0  0  0  0  0  0  0  0
    0.0000    7.7942    0.0000 N   0  0  0  0  0  0  0  0  0  0  0  0
    1.5000    7.7942    0.0000 C   0  0  0  0  0  0  0  0  0  0  0  0
    2.2500    9.0933    0.0000 C   0  0  0  0  0  0  0  0  0  0  0  0
    1.5000   10.3923    0.0000 N   0  0  0  0  0  0  0  0  0  0  0  0
    2.2500   11.6913    0.0000 C   0  0  0  0  0  0  0  0  0  0  0  0
   -0.0000   10.3923    0.0000 C   0  0  0  0  0  0  0  0  0  0  0  0
   -0.7500    9.0933    0.0000 C   0  0  0  0  0  0  0  0  0  0  0  0
  1  2  1  0
  2  3  1  0
  3  4  1  0
  4  5  2  0
  5  6  1  0
  6  7  1  0
  6  8  1  0
  8  9  1  0
  9 10  2  0
  9 11  1  0
 11 12  1  0
 12 13  2  0
 13 14  1  0
 12 15  1  0
 15 16  2  0
 16 17  1  0
 17 18  2  0
 18 19  1  0
 19 20  2  0
 20 21  1  0
 21 22  1  0
 22 23  1  0
 17 24  1  0
 24 25  2  0
 24 26  2  0
 24 27  1  0
 27 28  1  0
 28 29  1  0
 29 30  1  0
 30 31  1  0
 30 32  1  0
 32 33  1  0
 14  4  1  0
 14  8  2  0
 20 15  1  0
 33 27  1  0
M  END
$$$$
564291
     RDKit          2D

 46 48  0  0  0  0  0  0  0  0999 V2000
   -4.3786   -5.1199    0.0000 C   0  0  0  0  0  0  0  0  0  0  0  0
   -2.9520   -4.6564    0.0000 C   0  0  0  0  0  0  0  0  0  0  0  0
   -2.6401   -3.1891    0.0000 C   0  0  0  0  0  0  0  0  0  0  0  0
   -1.2135   -2.7256    0.0000 C   0  0  0  0  0  0  0  0  0  0  0  0
   -0.0000   -3.6073    0.0000 N   0  0  0  0  0  0  0  0  0  0  0  0
    1.2135   -2.7256    0.0000 N   0  0  0  0  0  0  0  0  0  0  0  0
    2.6401   -3.1891    0.0000 C   0  0  0  0  0  0  0  0  0  0  0  0
    0.7500   -1.2990    0.0000 C   0  0  0  0  0  0  0  0  0  0  0  0
    1.5000    0.0000    0.0000 C   0  0  0  0  0  0  0  0  0  0  0  0
    3.0000    0.0000    0.0000 O   0  0  0  0  0  0  0  0  0  0  0  0
    0.7500    1.2990    0.0000 N   0  0  0  0  0  0  0  0  0  0  0  0
   -0.7500    1.2990    0.0000 C   0  0  0  0  0  0  0  0  0  0  0  0
   -1.5000    0.0000    0.0000 N   0  0  0  0  0  0  0  0  0  0  0  0
   -0.7500   -1.2990    0.0000 C   0  0  0  0  0  0  0  0  0  0  0  0
   -1.5000    2.5981    0.0000 C   0  0  0  0  0  0  0  0  0  0  0  0
   -0.7500    3.8971    0.0000 C   0  0  0  0  0  0  0  0  0  0  0  0
   -1.5000    5.1962    0.0000 C   0  0  0  0  0  0  0  0  0  0  0  0
   -3.0000    5.1962    0.0000 C   0  0  0  0  0  0  0  0  0  0  0  0
   -3.7500    3.8971    0.0000 C   0  0  0  0  0  0  0  0  0  0  0  0
   -3.0000    2.5981    0.0000 C   0  0  0  0  0  0  0  0  0  0  0  0
   -3.7500    1.2990    0.0000 O   0  0  0  0  0  0  0  0  0  0  0  0
   -5.2500    1.2990    0.0000 C   0  0  0  0  0  0  0  0  0  0  0  0
   -6.0000    0.0000    0.0000 C   0  0  0  0  0  0  0  0  0  0  0  0
   -0.7500    6.4952    0.0000 S   0  0  0  0  0  0  0  0  0  0  0  0
    0.5490    5.7452    0.0000 O   0  0  0  0  0  0  0  0  0  0  0  0
   -2.0490    7.2452    0.0000 O   0  0  0  0  0  0  0  0  0  0  0  0
    0.0000    7.7942    0.0000 N   0  0  0  0  0  0  0  0  0  0  0  0
    1.5000    7.7942    0.0000 C   0  0  0  0  0  0  0  0  0  0  0  0
    2.2500    9.0933    0.0000 C   0  0  0  0  0  0  0  0  0  0  0  0
    1.5000   10.3923    0.0000 N   0  0  0  0  0  0  0  0  0  0  0  0
    2.2500   11.6913    0.0000 C   0  0  0  0  0  0  0  0  0  0  0  0
   -0.0000   10.3923    0.0000 C   0  0  0  0  0  0  0  0  0  0  0  0
   -0.7500    9.0933    0.0000 C   0  0  0  0  0  0  0  0  0  0  0  0
    4.0000    0.0000    0.0000 O   0  0  0  0  0  0  0  0  0  0  0  0
    5.2990    0.7500    0.0000 C   0  0  0  0  0  0  0  0  0  0  0  0
    5.2990    2.2500    0.0000 O   0  0  0  0  0  0  0  0  0  0  0  0
    6.5981    0.0000    0.0000 C   0  0  0  0  0  0  0  0  0  0  0  0
    7.8971    0.7500    0.0000 C   0  0  0  0  0  0  0  0  0  0  0  0
    7.1471    2.0490    0.0000 O   0  0  0  0  0  0  0  0  0  0  0  0
    9.1962    1.5000    0.0000 C   0  0  0  0  0  0  0  0  0  0  0  0
    9.1962    3.0000    0.0000 C   0  0  0  0  0  0  0  0  0  0  0  0
    7.8971    3.7500    0.0000 O   0  0  0  0  0  0  0  0  0  0  0  0
   10.4952    3.7500    0.0000 O   0  0  0  0  0  0  0  0  0  0  0  0
    8.6471   -0.5490    0.0000 C   0  0  0  0  0  0  0  0  0  0  0  0
    7.8971   -1.8481    0.0000 O   0  0  0  0  0  0  0  0  0  0  0  0
   10.1471   -0.5490    0.0000 O   0  0  0  0  0  0  0  0  0  0  0  0
  1  2  1  0
  2  3  1  0
  3  4  1  0
  4  5  2  0
  5  6  1  0
  6  7  1  0
  6  8  1  0
  8  9  1  0
  9 10  2  0
  9 11  1  0
 11 12  1  0
 12 13  2  0
 13 14  1  0
 12 15  1  0
 15 16  2  0
 16 17  1  0
 17 18  2  0
 18 19  1  0
 19 20  2  0
 20 21  1  0
 21 22  1  0
 22 23  1  0
 17 24  1  0
 24 25  2  0
 24 26  2  0
 24 27  1  0
 27 28  1  0
 28 29  1  0
 29 30  1  0
 30 31  1  0
 30 32  1  0
 32 33  1  0
 34 35  1  0
 35 36  2  0
 35 37  1  0
 37 38  1  0
 38 39  1  0
 38 40  1  0
 40 41  1  0
 41 42  2  0
 41 43  1  0
 38 44  1  0
 44 45  2  0
 44 46  1  0
 14  4  1  0
 14  8  2  0
 20 15  1  0
 33 27  1  0
M  END
$$$$
313314
     RDKit          2D

 31 35  0  0  0  0  0  0  0  0999 V2000
   -7.4687  -11.2013    0.0000 C   0  0  0  0  0  0  0  0  0  0  0  0
   -6.5870   -9.9877    0.0000 C   0  0  0  0  0  0  0  0  0  0  0  0
   -5.0952  -10.1445    0.0000 C   0  0  0  0  0  0  0  0  0  0  0  0
   -4.2135   -8.9310    0.0000 C   0  0  0  0  0  0  0  0  0  0  0  0
   -2.7135   -8.9310    0.0000 O   0  0  0  0  0  0  0  0  0  0  0  0
   -2.2500   -7.5044    0.0000 C   0  0  0  0  0  0  0  0  0  0  0  0
   -1.0365   -6.6227    0.0000 C   0  0  0  0  0  0  0  0  0  0  0  0
   -1.5000   -5.1962    0.0000 C   0  0  0  0  0  0  0  0  0  0  0  0
   -0.7500   -3.8971    0.0000 C   0  0  0  0  0  0  0  0  0  0  0  0
    0.7500   -3.8971    0.0000 C   0  0  0  0  0  0  0  0  0  0  0  0
    1.5000   -2.5981    0.0000 C   0  0  0  0  0  0  0  0  0  0  0  0
    0.7500   -1.2990    0.0000 C   0  0  0  0  0  0  0  0  0  0  0  0
    1.5000    0.0000    0.0000 C   0  0  0  0  0  0  0  0  0  0  0  0
    0.7500    1.2990    0.0000 C   0  0  0  0  0  0  0  0  0  0  0  0
    1.5000    2.5981    0.0000 O   0  0  0  0  0  0  0  0  0  0  0  0
   -0.7500    1.2990    0.0000 C   0  0  0  0  0  0  0  0  0  0  0  0
   -1.5000    0.0000    0.0000 C   0  0  0  0  0  0  0  0  0  0  0  0
   -0.7500   -1.2990    0.0000 C   0  0  0  0  0  0  0  0  0  0  0  0
   -2.2500   -1.2990    0.0000 C   0  0  0  0  0  0  0  0  0  0  0  0
   -1.5000   -2.5981    0.0000 C   0  0  0  0  0  0  0  0  0  0  0  0
   -3.0000   -2.5981    0.0000 C   0  0  0  0  0  0  0  0  0  0  0  0
   -3.7500   -1.2990    0.0000 O   0  0  0  0  0  0  0  0  0  0  0  0
   -3.7500   -3.8971    0.0000 C   0  0  0  0  0  0  0  0  0  0  0  0
   -3.0000   -5.1962    0.0000 C   0  0  0  0  0  0  0  0  0  0  0  0
   -4.4918   -5.3529    0.0000 C   0  0  0  0  0  0  0  0  0  0  0  0
   -3.4635   -6.6227    0.0000 C   0  0  0  0  0  0  0  0  0  0  0  0
   -4.6771   -7.5044    0.0000 O   0  0  0  0  0  0  0  0  0  0  0  0
   -1.9635   -6.6227    0.0000 C   0  0  0  0  0  0  0  0  0  0  0  0
   -1.4097   -6.0493    0.0000 O   0  0  0  0  0  0  0  0  0  0  0  0
   -1.2135   -7.9218    0.0000 C   0  0  0  0  0  0  0  0  0  0  0  0
    0.2865   -7.9218    0.0000 O   0  0  0  0  0  0  0  0  0  0  0  0
  1  2  1  0
  2  3  1  0
  3  4  1  0
  4  5  1  0
  5  6  1  0
  6  7  1  1
  8  7  1  6
  8  9  1  0
  9 10  1  1
 10 11  1  0
 11 12  1  0
 12 13  2  0
 13 14  1  0
 14 15  2  0
 14 16  1  0
 16 17  2  0
 17 18  1  0
 18 19  1  6
 18 20  1  0
 20 21  1  6
 21 22  1  6
 21 23  1  0
 23 24  1  0
 24 25  1  6
 24 26  1  0
 26 27  1  0
 26 28  1  6
 28 29  2  0
 28 30  1  0
 30 31  1  0
 27  4  1  0
 26  6  1  0
 24  8  1  0
 20  9  1  0
 18 12  1  0
M  END
$$$$
139045
     RDKit          2D

 32 34  0  0  0  0  0  0  0  0999 V2000
    3.0000   -7.7942    0.0000 C   0  0  0  0  0  0  0  0  0  0  0  0
    3.7500   -6.4952    0.0000 C   0  0  0  0  0  0  0  0  0  0  0  0
    3.0000   -5.1962    0.0000 C   0  0  0  0  0  0  0  0  0  0  0  0
    3.7500   -3.8971    0.0000 C   0  0  0  0  0  0  0  0  0  0  0  0
    3.0000   -2.5981    0.0000 C   0  0  0  0  0  0  0  0  0  0  0  0
    1.5000   -2.5981    0.0000 O   0  0  0  0  0  0  0  0  0  0  0  0
    3.7500   -1.2990    0.0000 N   0  0  0  0  0  0  0  0  0  0  0  0
    3.0000    0.0000    0.0000 C   0  0  0  0  0  0  0  0  0  0  0  0
    1.5000    0.0000    0.0000 C   0  0  0  0  0  0  0  0  0  0  0  0
    0.7500   -1.2990    0.0000 C   0  0  0  0  0  0  0  0  0  0  0  0
   -0.7500   -1.2990    0.0000 C   0  0  0  0  0  0  0  0  0  0  0  0
   -1.5000    0.0000    0.0000 C   0  0  0  0  0  0  0  0  0  0  0  0
   -0.7500    1.2990    0.0000 C   0  0  0  0  0  0  0  0  0  0  0  0
    0.7500    1.2990    0.0000 C   0  0  0  0  0  0  0  0  0  0  0  0
   -3.0000    0.0000    0.0000 C   0  0  0  0  0  0  0  0  0  0  0  0
   -3.7500    1.2990    0.0000 C   0  0  0  0  0  0  0  0  0  0  0  0
   -5.2500    1.2990    0.0000 C   0  0  0  0  0  0  0  0  0  0  0  0
   -6.0000    0.0000    0.0000 C   0  0  0  0  0  0  0  0  0  0  0  0
   -5.2500   -1.2990    0.0000 C   0  0  0  0  0  0  0  0  0  0  0  0
   -3.7500   -1.2990    0.0000 C   0  0  0  0  0  0  0  0  0  0  0  0
   -3.0000   -2.5981    0.0000 C   0  0  0  0  0  0  0  0  0  0  0  0
   -1.5082   -2.7549    0.0000 N   0  0  0  0  0  0  0  0  0  0  0  0
   -1.1963   -4.2221    0.0000 N   0  0  0  0  0  0  0  0  0  0  0  0
   -2.4954   -4.9721    0.0000 N   0  0  0  0  0  0  0  0  0  0  0  0
   -3.6101   -3.9684    0.0000 N   0  0  0  0  0  0  0  0  0  0  0  0
    5.2500   -1.2990    0.0000 C   0  0  0  0  0  0  0  0  0  0  0  0
    6.0000   -2.5981    0.0000 C   0  0  0  0  0  0  0  0  0  0  0  0
    7.5000   -2.5981    0.0000 C   0  0  0  0  0  0  0  0  0  0  0  0
    5.2500   -3.8971    0.0000 C   0  0  0  0  0  0  0  0  0  0  0  0
    6.0000    0.0000    0.0000 C   0  0  0  0  0  0  0  0  0  0  0  0
    5.2500    1.2990    0.0000 O   0  0  0  0  0  0  0  0  0  0  0  0
    7.5000   -0.0000    0.0000 O   0  0  0  0  0  0  0  0  0  0  0  0
  1  2  1  0
  2  3  1  0
  3  4  1  0
  4  5  1  0
  5  6  2  0
  5  7  1  0
  7  8  1  0
  8  9  1  0
  9 10  2  0
 10 11  1  0
 11 12  2  0
 12 13  1  0
 13 14  2  0
 12 15  1  0
 15 16  2  0
 16 17  1  0
 17 18  2  0
 18 19  1  0
 19 20  2  0
 20 21  1  0
 21 22  2  0
 22 23  1  0
 23 24  2  0
 24 25  1  0
  7 26  1  0
 26 27  1  6
 27 28  1  0
 27 29  1  0
 26 30  1  0
 30 31  2  0
 30 32  1  0
 14  9  1  0
 20 15  1  0
 25 21  1  0
M  END
$$$$
421038
     RDKit          2D

 26 29  0  0  0  0  0  0  0  0999 V2000
   -8.6789  -12.4150    0.0000 C   0  0  0  0  0  0  0  0  0  0  0  0
   -8.3670  -10.9478    0.0000 C   0  0  0  0  0  0  0  0  0  0  0  0
   -6.9404  -10.4842    0.0000 C   0  0  0  0  0  0  0  0  0  0  0  0
   -6.6286   -9.0170    0.0000 C   0  0  0  0  0  0  0  0  0  0  0  0
   -5.2020   -8.5535    0.0000 C   0  0  0  0  0  0  0  0  0  0  0  0
   -4.0873   -9.5572    0.0000 O   0  0  0  0  0  0  0  0  0  0  0  0
   -4.8901   -7.0863    0.0000 O   0  0  0  0  0  0  0  0  0  0  0  0
   -3.4635   -6.6227    0.0000 C   0  0  0  0  0  0  0  0  0  0  0  0
   -2.2500   -7.5044    0.0000 C   0  0  0  0  0  0  0  0  0  0  0  0
   -1.0365   -6.6227    0.0000 C   0  0  0  0  0  0  0  0  0  0  0  0
   -1.5000   -5.1962    0.0000 C   0  0  0  0  0  0  0  0  0  0  0  0
   -0.7500   -3.8971    0.0000 C   0  0  0  0  0  0  0  0  0  0  0  0
    0.7500   -3.8971    0.0000 C   0  0  0  0  0  0  0  0  0  0  0  0
    1.5000   -2.5981    0.0000 C   0  0  0  0  0  0  0  0  0  0  0  0
    0.7500   -1.2990    0.0000 C   0  0  0  0  0  0  0  0  0  0  0  0
    1.5000    0.0000    0.0000 C   0  0  0  0  0  0  0  0  0  0  0  0
    0.7500    1.2990    0.0000 C   0  0  0  0  0  0  0  0  0  0  0  0
    1.5000    2.5981    0.0000 O   0  0  0  0  0  0  0  0  0  0  0  0
   -0.7500    1.2990    0.0000 C   0  0  0  0  0  0  0  0  0  0  0  0
   -1.5000    0.0000    0.0000 C   0  0  0  0  0  0  0  0  0  0  0  0
   -0.7500   -1.2990    0.0000 C   0  0  0  0  0  0  0  0  0  0  0  0
   -1.5000   -2.5981    0.0000 C   0  0  0  0  0  0  0  0  0  0  0  0
   -3.0000   -2.5981    0.0000 C   0  0  0  0  0  0  0  0  0  0  0  0
   -3.7500   -3.8971    0.0000 C   0  0  0  0  0  0  0  0  0  0  0  0
   -3.0000   -5.1962    0.0000 C   0  0  0  0  0  0  0  0  0  0  0  0
   -4.4918   -5.3529    0.0000 C   0  0  0  0  0  0  0  0  0  0  0  0
  1  2  1  0
  2  3  1  0
  3  4  1  0
  4  5  1  0
  5  6  2  0
  5  7  1  0
  8  7  1  6
  8  9  1  0
  9 10  1  0
 11 10  1  6
 11 12  1  0
 12 13  1  1
 13 14  1  0
 14 15  1  0
 15 16  2  0
 16 17  1  0
 17 18  1  0
 17 19  2  0
 19 20  1  0
 20 21  2  0
 21 22  1  0
 22 23  1  6
 23 24  1  0
 24 25  1  0
 25 26  1  6
 25  8  1  0
 25 11  1  0
 22 12  1  0
 21 15  1  0
M  END
$$$$
22391
     RDKit          2D

 27 27  0  0  0  0  0  0  0  0999 V2000
   10.9721   -2.5981    0.0000 C   0  0  0  0  0  0  0  0  0  0  0  0
    9.6731   -1.8481    0.0000 C   0  0  0  0  0  0  0  0  0  0  0  0
    8.3741   -2.5981    0.0000 C   0  0  0  0  0  0  0  0  0  0  0  0
    7.0750   -1.8481    0.0000 C   0  0  0  0  0  0  0  0  0  0  0  0
    5.7760   -2.5981    0.0000 C   0  0  0  0  0  0  0  0  0  0  0  0
    4.4769   -3.3481    0.0000 C   0  0  0  0  0  0  0  0  0  0  0  0
    6.5260   -3.8971    0.0000 O   0  0  0  0  0  0  0  0  0  0  0  0
    5.0260   -1.2990    0.0000 C   0  0  0  0  0  0  0  0  0  0  0  0
    3.5260   -1.2990    0.0000 C   0  0  0  0  0  0  0  0  0  0  0  0
    2.7760    0.0000    0.0000 C   0  0  0  0  0  0  0  0  0  0  0  0
    1.2760    0.0000    0.0000 C   0  0  0  0  0  0  0  0  0  0  0  0
    0.3943    1.2135    0.0000 C   0  0  0  0  0  0  0  0  0  0  0  0
    0.8578    2.6401    0.0000 O   0  0  0  0  0  0  0  0  0  0  0  0
   -1.0323    0.7500    0.0000 C   0  0  0  0  0  0  0  0  0  0  0  0
   -1.0323   -0.7500    0.0000 C   0  0  0  0  0  0  0  0  0  0  0  0
   -2.2458   -1.6317    0.0000 O   0  0  0  0  0  0  0  0  0  0  0  0
    0.3943   -1.2135    0.0000 C   0  0  0  0  0  0  0  0  0  0  0  0
    0.8578   -2.6401    0.0000 C   0  0  0  0  0  0  0  0  0  0  0  0
   -0.1459   -3.7548    0.0000 C   0  0  0  0  0  0  0  0  0  0  0  0
    0.3177   -5.1814    0.0000 C   0  0  0  0  0  0  0  0  0  0  0  0
   -0.6860   -6.2961    0.0000 C   0  0  0  0  0  0  0  0  0  0  0  0
   -0.2225   -7.7227    0.0000 C   0  0  0  0  0  0  0  0  0  0  0  0
   -1.2262   -8.8374    0.0000 C   0  0  0  0  0  0  0  0  0  0  0  0
   -0.7627  -10.2640    0.0000 C   0  0  0  0  0  0  0  0  0  0  0  0
    0.7045  -10.5759    0.0000 O   0  0  0  0  0  0  0  0  0  0  0  0
   -1.7664  -11.3787    0.0000 O   0  0  0  0  0  0  0  0  0  0  0  0
   -1.3029  -12.8053    0.0000 C   0  0  0  0  0  0  0  0  0  0  0  0
  1  2  1  0
  2  3  1  0
  3  4  1  0
  4  5  1  0
  5  6  1  0
  5  7  1  0
  5  8  1  0
  8  9  1  0
  9 10  2  0
 11 10  1  6
 11 12  1  0
 12 13  1  1
 12 14  1  0
 14 15  1  0
 15 16  2  0
 15 17  1  0
 17 18  1  1
 18 19  1  0
 19 20  1  0
 20 21  1  0
 21 22  1  0
 22 23  1  0
 23 24  1  0
 24 25  2  0
 24 26  1  0
 26 27  1  0
 17 11  1  0
M  END
$$$$
675085
     RDKit          2D

 27 28  0  0  0  0  0  0  0  0999 V2000
    4.4263    5.8470    0.0000 C   0  0  0  0  0  0  0  0  0  0  0  0
    4.6867    4.3698    0.0000 C   0  0  0  0  0  0  0  0  0  0  0  0
    3.5377    3.4056    0.0000 C   0  0  0  0  0  0  0  0  0  0  0  0
    3.7981    1.9284    0.0000 C   0  0  0  0  0  0  0  0  0  0  0  0
    2.6491    0.9642    0.0000 C   0  0  0  0  0  0  0  0  0  0  0  0
    1.6849    2.1132    0.0000 F   0  0  0  0  0  0  0  0  0  0  0  0
    3.6132   -0.1849    0.0000 F   0  0  0  0  0  0  0  0  0  0  0  0
    1.5000    0.0000    0.0000 C   0  0  0  0  0  0  0  0  0  0  0  0
    2.6491   -0.9642    0.0000 O   0  0  0  0  0  0  0  0  0  0  0  0
    0.7500   -1.2990    0.0000 C   0  0  0  0  0  0  0  0  0  0  0  0
   -0.7500   -1.2990    0.0000 C   0  0  0  0  0  0  0  0  0  0  0  0
   -1.5000    0.0000    0.0000 C   0  0  0  0  0  0  0  0  0  0  0  0
   -2.9672    0.3119    0.0000 C   0  0  0  0  0  0  0  0  0  0  0  0
   -4.0819   -0.6918    0.0000 C   0  0  0  0  0  0  0  0  0  0  0  0
   -5.5085   -0.2283    0.0000 C   0  0  0  0  0  0  0  0  0  0  0  0
   -6.6232   -1.2320    0.0000 C   0  0  0  0  0  0  0  0  0  0  0  0
   -8.0498   -0.7685    0.0000 C   0  0  0  0  0  0  0  0  0  0  0  0
   -9.1645   -1.7722    0.0000 C   0  0  0  0  0  0  0  0  0  0  0  0
  -10.5911   -1.3086    0.0000 C   0  0  0  0  0  0  0  0  0  0  0  0
  -11.7058   -2.3123    0.0000 C   0  0  0  0  0  0  0  0  0  0  0  0
  -11.3940   -3.7796    0.0000 O   0  0  0  0  0  0  0  0  0  0  0  0
  -13.1324   -1.8488    0.0000 O   0  0  0  0  0  0  0  0  0  0  0  0
   -3.1240    1.8037    0.0000 C   0  0  0  0  0  0  0  0  0  0  0  0
   -4.4231    2.5537    0.0000 O   0  0  0  0  0  0  0  0  0  0  0  0
   -1.7537    2.4138    0.0000 C   0  0  0  0  0  0  0  0  0  0  0  0
   -0.7500    1.2990    0.0000 C   0  0  0  0  0  0  0  0  0  0  0  0
    0.7500    1.2990    0.0000 O   0  0  0  0  0  0  0  0  0  0  0  0
  1  2  1  0
  2  3  1  0
  3  4  1  0
  4  5  1  0
  5  6  1  0
  5  7  1  0
  5  8  1  0
  8  9  1  6
  8 10  1  0
 10 11  1  0
 12 11  1  6
 12 13  1  0
 13 14  1  1
 14 15  1  0
 15 16  1  0
 16 17  1  0
 17 18  1  0
 18 19  1  0
 19 20  1  0
 20 21  2  0
 20 22  1  0
 13 23  1  0
 23 24  2  0
 23 25  1  0
 26 25  1  1
 26 27  1  0
 27  8  1  0
 26 12  1  0
M  END
$$$$
421066
     RDKit          2D

 32 36  0  0  0  0  0  0  0  0999 V2000
    1.4746    8.7232    0.0000 C   0  0  0  0  0  0  0  0  0  0  0  0
    0.4709    7.6085    0.0000 C   0  0  0  0  0  0  0  0  0  0  0  0
    0.9345    6.1819    0.0000 C   0  0  0  0  0  0  0  0  0  0  0  0
   -0.0692    5.0672    0.0000 C   0  0  0  0  0  0  0  0  0  0  0  0
    0.3943    3.6406    0.0000 C   0  0  0  0  0  0  0  0  0  0  0  0
   -0.4874    2.4271    0.0000 N   0  0  0  0  0  0  0  0  0  0  0  0
    0.3943    1.2135    0.0000 C   0  0  0  0  0  0  0  0  0  0  0  0
    1.2760    0.0000    0.0000 C   0  0  0  0  0  0  0  0  0  0  0  0
    0.3943   -1.2135    0.0000 C   0  0  0  0  0  0  0  0  0  0  0  0
   -1.0323   -0.7500    0.0000 C   0  0  0  0  0  0  0  0  0  0  0  0
   -1.0323    0.7500    0.0000 C   0  0  0  0  0  0  0  0  0  0  0  0
    1.8209    1.6771    0.0000 C   0  0  0  0  0  0  0  0  0  0  0  0
    3.0344    0.7954    0.0000 O   0  0  0  0  0  0  0  0  0  0  0  0
    1.8209    3.1771    0.0000 N   0  0  0  0  0  0  0  0  0  0  0  0
    3.0344    4.0587    0.0000 C   0  0  0  0  0  0  0  0  0  0  0  0
    4.4047    3.4486    0.0000 C   0  0  0  0  0  0  0  0  0  0  0  0
    4.5615    1.9568    0.0000 C   0  0  0  0  0  0  0  0  0  0  0  0
    5.9318    1.3467    0.0000 C   0  0  0  0  0  0  0  0  0  0  0  0
    7.1454    2.2284    0.0000 C   0  0  0  0  0  0  0  0  0  0  0  0
    6.9886    3.7202    0.0000 C   0  0  0  0  0  0  0  0  0  0  0  0
    5.6183    4.3303    0.0000 C   0  0  0  0  0  0  0  0  0  0  0  0
    8.5157    1.6183    0.0000 C   0  0  0  0  0  0  0  0  0  0  0  0
    8.6725    0.1265    0.0000 C   0  0  0  0  0  0  0  0  0  0  0  0
   10.0428   -0.4836    0.0000 C   0  0  0  0  0  0  0  0  0  0  0  0
   11.2563    0.3981    0.0000 C   0  0  0  0  0  0  0  0  0  0  0  0
   11.0995    1.8899    0.0000 C   0  0  0  0  0  0  0  0  0  0  0  0
    9.7292    2.5000    0.0000 C   0  0  0  0  0  0  0  0  0  0  0  0
    9.5724    3.9918    0.0000 C   0  0  0  0  0  0  0  0  0  0  0  0
    8.2734    4.7418    0.0000 N   0  0  0  0  0  0  0  0  0  0  0  0
    8.5852    6.2090    0.0000 N   0  0  0  0  0  0  0  0  0  0  0  0
   10.0770    6.3658    0.0000 N   0  0  0  0  0  0  0  0  0  0  0  0
   10.6871    4.9955    0.0000 N   0  0  0  0  0  0  0  0  0  0  0  0
  1  2  1  0
  2  3  1  0
  3  4  1  0
  4  5  1  0
  5  6  2  0
  6  7  1  0
  7  8  1  0
  8  9  1  0
  9 10  1  0
 10 11  1  0
  7 12  1  0
 12 13  2  0
 12 14  1  0
 14 15  1  0
 15 16  1  0
 16 17  2  0
 17 18  1  0
 18 19  2  0
 19 20  1  0
 20 21  2  0
 19 22  1  0
 22 23  2  0
 23 24  1  0
 24 25  2  0
 25 26  1  0
 26 27  2  0
 27 28  1  0
 28 29  1  0
 29 30  2  0
 30 31  1  0
 31 32  1  0
 14  5  1  0
 11  7  1  0
 21 16  1  0
 27 22  1  0
 32 28  2  0
M  END
$$$$
227917
     RDKit          2D

 24 26  0  0  0  0  0  0  0  0999 V2000
   -1.0496   -9.1759    0.0000 C   0  0  0  0  0  0  0  0  0  0  0  0
    0.3207   -8.5658    0.0000 C   0  0  0  0  0  0  0  0  0  0  0  0
    0.4775   -7.0740    0.0000 C   0  0  0  0  0  0  0  0  0  0  0  0
    1.8478   -6.4639    0.0000 C   0  0  0  0  0  0  0  0  0  0  0  0
    2.0046   -4.9721    0.0000 C   0  0  0  0  0  0  0  0  0  0  0  0
    3.3037   -4.2221    0.0000 C   0  0  0  0  0  0  0  0  0  0  0  0
    4.6740   -4.8322    0.0000 O   0  0  0  0  0  0  0  0  0  0  0  0
    2.9918   -2.7549    0.0000 N   0  0  0  0  0  0  0  0  0  0  0  0
    1.5000   -2.5981    0.0000 N   0  0  0  0  0  0  0  0  0  0  0  0
    0.8899   -3.9684    0.0000 C   0  0  0  0  0  0  0  0  0  0  0  0
   -0.5773   -4.2803    0.0000 O   0  0  0  0  0  0  0  0  0  0  0  0
    0.7500   -1.2990    0.0000 C   0  0  0  0  0  0  0  0  0  0  0  0
    1.5000    0.0000    0.0000 C   0  0  0  0  0  0  0  0  0  0  0  0
    0.7500    1.2990    0.0000 C   0  0  0  0  0  0  0  0  0  0  0  0
   -0.7500    1.2990    0.0000 C   0  0  0  0  0  0  0  0  0  0  0  0
   -1.5000    2.5981    0.0000 O   0  0  0  0  0  0  0  0  0  0  0  0
   -1.5000    0.0000    0.0000 C   0  0  0  0  0  0  0  0  0  0  0  0
   -0.7500   -1.2990    0.0000 C   0  0  0  0  0  0  0  0  0  0  0  0
    3.9955   -1.6402    0.0000 C   0  0  0  0  0  0  0  0  0  0  0  0
    5.4627   -1.9520    0.0000 C   0  0  0  0  0  0  0  0  0  0  0  0
    6.4664   -0.8373    0.0000 C   0  0  0  0  0  0  0  0  0  0  0  0
    6.0029    0.5893    0.0000 C   0  0  0  0  0  0  0  0  0  0  0  0
    4.5356    0.9012    0.0000 C   0  0  0  0  0  0  0  0  0  0  0  0
    3.5320   -0.2136    0.0000 C   0  0  0  0  0  0  0  0  0  0  0  0
  1  2  1  0
  2  3  1  0
  3  4  1  0
  4  5  1  0
  5  6  1  0
  6  7  2  0
  6  8  1  0
  8  9  1  0
  9 10  1  0
 10 11  2  0
  9 12  1  0
 12 13  2  0
 13 14  1  0
 14 15  2  0
 15 16  1  0
 15 17  1  0
 17 18  2  0
  8 19  1  0
 19 20  2  0
 20 21  1  0
 21 22  2  0
 22 23  1  0
 23 24  2  0
 10  5  1  0
 18 12  1  0
 24 19  1  0
M  END
$$$$
12417
     RDKit          2D

 23 25  0  0  0  0  0  0  0  0999 V2000
   -1.0496   -9.1759    0.0000 C   0  0  0  0  0  0  0  0  0  0  0  0
    0.3207   -8.5658    0.0000 C   0  0  0  0  0  0  0  0  0  0  0  0
    0.4775   -7.0740    0.0000 C   0  0  0  0  0  0  0  0  0  0  0  0
    1.8478   -6.4639    0.0000 C   0  0  0  0  0  0  0  0  0  0  0  0
    2.0046   -4.9721    0.0000 C   0  0  0  0  0  0  0  0  0  0  0  0
    3.3037   -4.2221    0.0000 C   0  0  0  0  0  0  0  0  0  0  0  0
    4.6740   -4.8322    0.0000 O   0  0  0  0  0  0  0  0  0  0  0  0
    2.9918   -2.7549    0.0000 N   0  0  0  0  0  0  0  0  0  0  0  0
    1.5000   -2.5981    0.0000 N   0  0  0  0  0  0  0  0  0  0  0  0
    0.8899   -3.9684    0.0000 C   0  0  0  0  0  0  0  0  0  0  0  0
   -0.5773   -4.2803    0.0000 O   0  0  0  0  0  0  0  0  0  0  0  0
    0.7500   -1.2990    0.0000 C   0  0  0  0  0  0  0  0  0  0  0  0
    1.5000    0.0000    0.0000 C   0  0  0  0  0  0  0  0  0  0  0  0
    0.7500    1.2990    0.0000 C   0  0  0  0  0  0  0  0  0  0  0  0
   -0.7500    1.2990    0.0000 C   0  0  0  0  0  0  0  0  0  0  0  0
   -1.5000    0.0000    0.0000 C   0  0  0  0  0  0  0  0  0  0  0  0
   -0.7500   -1.2990    0.0000 C   0  0  0  0  0  0  0  0  0  0  0  0
    3.9955   -1.6402    0.0000 C   0  0  0  0  0  0  0  0  0  0  0  0
    5.4627   -1.9520    0.0000 C   0  0  0  0  0  0  0  0  0  0  0  0
    6.4664   -0.8373    0.0000 C   0  0  0  0  0  0  0  0  0  0  0  0
    6.0029    0.5893    0.0000 C   0  0  0  0  0  0  0  0  0  0  0  0
    4.5356    0.9012    0.0000 C   0  0  0  0  0  0  0  0  0  0  0  0
    3.5320   -0.2136    0.0000 C   0  0  0  0  0  0  0  0  0  0  0  0
  1  2  1  0
  2  3  1  0
  3  4  1  0
  4  5  1  0
  5  6  1  0
  6  7  2  0
  6  8  1  0
  8  9  1  0
  9 10  1  0
 10 11  2  0
  9 12  1  0
 12 13  2  0
 13 14  1  0
 14 15  2  0
 15 16  1  0
 16 17  2  0
  8 18  1  0
 18 19  2  0
 19 20  1  0
 20 21  2  0
 21 22  1  0
 22 23  2  0
 10  5  1  0
 17 12  1  0
 23 18  1  0
M  END
$$$$
408842
     RDKit          2D

 30 33  0  0  0  0  0  0  0  0999 V2000
   -5.6836   -2.4482    0.0000 C   0  0  0  0  0  0  0  0  0  0  0  0
   -4.2164   -2.1363    0.0000 C   0  0  0  0  0  0  0  0  0  0  0  0
   -3.2127   -3.2511    0.0000 C   0  0  0  0  0  0  0  0  0  0  0  0
   -1.7455   -2.9392    0.0000 C   0  0  0  0  0  0  0  0  0  0  0  0
   -0.7418   -4.0539    0.0000 C   0  0  0  0  0  0  0  0  0  0  0  0
   -1.0537   -5.5211    0.0000 N   0  0  0  0  0  0  0  0  0  0  0  0
    0.2454   -6.2711    0.0000 C   0  0  0  0  0  0  0  0  0  0  0  0
    0.4022   -7.7629    0.0000 Cl  0  0  0  0  0  0  0  0  0  0  0  0
    1.3601   -5.2674    0.0000 C   0  0  0  0  0  0  0  0  0  0  0  0
    2.8273   -5.5793    0.0000 C   0  0  0  0  0  0  0  0  0  0  0  0
    3.2909   -7.0059    0.0000 O   0  0  0  0  0  0  0  0  0  0  0  0
    0.7500   -3.8971    0.0000 N   0  0  0  0  0  0  0  0  0  0  0  0
    1.5000   -2.5981    0.0000 C   0  0  0  0  0  0  0  0  0  0  0  0
    0.7500   -1.2990    0.0000 C   0  0  0  0  0  0  0  0  0  0  0  0
    1.5000    0.0000    0.0000 C   0  0  0  0  0  0  0  0  0  0  0  0
    0.7500    1.2990    0.0000 C   0  0  0  0  0  0  0  0  0  0  0  0
   -0.7500    1.2990    0.0000 C   0  0  0  0  0  0  0  0  0  0  0  0
   -1.5000    0.0000    0.0000 C   0  0  0  0  0  0  0  0  0  0  0  0
   -0.7500   -1.2990    0.0000 C   0  0  0  0  0  0  0  0  0  0  0  0
   -1.5000    2.5981    0.0000 C   0  0  0  0  0  0  0  0  0  0  0  0
   -0.7500    3.8971    0.0000 C   0  0  0  0  0  0  0  0  0  0  0  0
   -1.5000    5.1962    0.0000 C   0  0  0  0  0  0  0  0  0  0  0  0
   -3.0000    5.1962    0.0000 C   0  0  0  0  0  0  0  0  0  0  0  0
   -3.7500    3.8971    0.0000 C   0  0  0  0  0  0  0  0  0  0  0  0
   -3.0000    2.5981    0.0000 C   0  0  0  0  0  0  0  0  0  0  0  0
   -3.7500    1.2990    0.0000 C   0  0  0  0  0  0  0  0  0  0  0  0
   -3.1399   -0.0713    0.0000 N   0  0  0  0  0  0  0  0  0  0  0  0
   -4.2546   -1.0750    0.0000 N   0  0  0  0  0  0  0  0  0  0  0  0
   -5.5537   -0.3250    0.0000 N   0  0  0  0  0  0  0  0  0  0  0  0
   -5.2418    1.1422    0.0000 N   0  0  0  0  0  0  0  0  0  0  0  0
  1  2  1  0
  2  3  1  0
  3  4  1  0
  4  5  1  0
  5  6  2  0
  6  7  1  0
  7  8  1  0
  7  9  2  0
  9 10  1  0
 10 11  1  0
  9 12  1  0
 12 13  1  0
 13 14  1  0
 14 15  2  0
 15 16  1  0
 16 17  2  0
 17 18  1  0
 18 19  2  0
 17 20  1  0
 20 21  2  0
 21 22  1  0
 22 23  2  0
 23 24  1  0
 24 25  2  0
 25 26  1  0
 26 27  2  0
 27 28  1  0
 28 29  2  0
 29 30  1  0
 12  5  1  0
 19 14  1  0
 25 20  1  0
 30 26  1  0
M  END
$$$$
54211
     RDKit          2D

 30 32  0  0  0  0  0  0  0  0999 V2000
   -5.6836   -2.4482    0.0000 C   0  0  0  0  0  0  0  0  0  0  0  0
   -4.2164   -2.1363    0.0000 C   0  0  0  0  0  0  0  0  0  0  0  0
   -3.2127   -3.2511    0.0000 C   0  0  0  0  0  0  0  0  0  0  0  0
   -1.7455   -2.9392    0.0000 C   0  0  0  0  0  0  0  0  0  0  0  0
   -0.7418   -4.0539    0.0000 C   0  0  0  0  0  0  0  0  0  0  0  0
   -1.0537   -5.5211    0.0000 N   0  0  0  0  0  0  0  0  0  0  0  0
    0.2454   -6.2711    0.0000 C   0  0  0  0  0  0  0  0  0  0  0  0
    1.3601   -5.2674    0.0000 C   0  0  0  0  0  0  0  0  0  0  0  0
    2.8273   -5.5793    0.0000 C   0  0  0  0  0  0  0  0  0  0  0  0
    3.2909   -7.0059    0.0000 C   0  0  0  0  0  0  0  0  0  0  0  0
    2.2872   -8.1206    0.0000 C   0  0  0  0  0  0  0  0  0  0  0  0
    2.7507   -9.5472    0.0000 C   0  0  0  0  0  0  0  0  0  0  0  0
    4.1773  -10.0107    0.0000 C   0  0  0  0  0  0  0  0  0  0  0  0
    4.1773  -11.5107    0.0000 C   0  0  0  0  0  0  0  0  0  0  0  0
    2.7507  -11.9742    0.0000 C   0  0  0  0  0  0  0  0  0  0  0  0
    1.8690  -10.7607    0.0000 S   0  0  0  0  0  0  0  0  0  0  0  0
    4.7581   -7.3178    0.0000 C   0  0  0  0  0  0  0  0  0  0  0  0
    5.7618   -6.2030    0.0000 O   0  0  0  0  0  0  0  0  0  0  0  0
    5.2216   -8.7443    0.0000 O   0  0  0  0  0  0  0  0  0  0  0  0
    0.7500   -3.8971    0.0000 N   0  0  0  0  0  0  0  0  0  0  0  0
    1.5000   -2.5981    0.0000 C   0  0  0  0  0  0  0  0  0  0  0  0
    0.7500   -1.2990    0.0000 C   0  0  0  0  0  0  0  0  0  0  0  0
    1.5000    0.0000    0.0000 C   0  0  0  0  0  0  0  0  0  0  0  0
    0.7500    1.2990    0.0000 C   0  0  0  0  0  0  0  0  0  0  0  0
   -0.7500    1.2990    0.0000 C   0  0  0  0  0  0  0  0  0  0  0  0
   -1.5000    0.0000    0.0000 C   0  0  0  0  0  0  0  0  0  0  0  0
   -0.7500   -1.2990    0.0000 C   0  0  0  0  0  0  0  0  0  0  0  0
   -1.5000    2.5981    0.0000 C   0  0  0  0  0  0  0  0  0  0  0  0
   -3.0000    2.5981    0.0000 O   0  0  0  0  0  0  0  0  0  0  0  0
   -0.7500    3.8971    0.0000 O   0  0  0  0  0  0  0  0  0  0  0  0
  1  2  1  0
  2  3  1  0
  3  4  1  0
  4  5  1  0
  5  6  2  0
  6  7  1  0
  7  8  2  0
  8  9  1  0
  9 10  2  0
 10 11  1  0
 11 12  1  0
 12 13  2  0
 13 14  1  0
 14 15  2  0
 15 16  1  0
 10 17  1  0
 17 18  2  0
 17 19  1  0
  8 20  1  0
 20 21  1  0
 21 22  1  0
 22 23  2  0
 23 24  1  0
 24 25  2  0
 25 26  1  0
 26 27  2  0
 25 28  1  0
 28 29  2  0
 28 30  1  0
 20  5  1  0
 16 12  1  0
 27 22  1  0
M  END
$$$$
674938
     RDKit          2D

 35 36  0  0  0  0  0  0  0  0999 V2000
   -5.6836   -2.4482    0.0000 C   0  0  0  0  0  0  0  0  0  0  0  0
   -4.2164   -2.1363    0.0000 C   0  0  0  0  0  0  0  0  0  0  0  0
   -3.2127   -3.2511    0.0000 C   0  0  0  0  0  0  0  0  0  0  0  0
   -1.7455   -2.9392    0.0000 C   0  0  0  0  0  0  0  0  0  0  0  0
   -0.7418   -4.0539    0.0000 C   0  0  0  0  0  0  0  0  0  0  0  0
   -1.0537   -5.5211    0.0000 N   0  0  0  0  0  0  0  0  0  0  0  0
    0.2454   -6.2711    0.0000 C   0  0  0  0  0  0  0  0  0  0  0  0
    1.3601   -5.2674    0.0000 C   0  0  0  0  0  0  0  0  0  0  0  0
    2.8273   -5.5793    0.0000 C   0  0  0  0  0  0  0  0  0  0  0  0
    3.2909   -7.0059    0.0000 C   0  0  0  0  0  0  0  0  0  0  0  0
    2.2872   -8.1206    0.0000 C   0  0  0  0  0  0  0  0  0  0  0  0
    2.7507   -9.5472    0.0000 C   0  0  0  0  0  0  0  0  0  0  0  0
    4.1773  -10.0107    0.0000 C   0  0  0  0  0  0  0  0  0  0  0  0
    4.1773  -11.5107    0.0000 C   0  0  0  0  0  0  0  0  0  0  0  0
    2.7507  -11.9742    0.0000 C   0  0  0  0  0  0  0  0  0  0  0  0
    1.8690  -10.7607    0.0000 S   0  0  0  0  0  0  0  0  0  0  0  0
    4.7581   -7.3178    0.0000 C   0  0  0  0  0  0  0  0  0  0  0  0
    5.7618   -6.2030    0.0000 O   0  0  0  0  0  0  0  0  0  0  0  0
    5.2216   -8.7443    0.0000 O   0  0  0  0  0  0  0  0  0  0  0  0
    0.7500   -3.8971    0.0000 N   0  0  0  0  0  0  0  0  0  0  0  0
    1.5000   -2.5981    0.0000 C   0  0  0  0  0  0  0  0  0  0  0  0
    0.7500   -1.2990    0.0000 C   0  0  0  0  0  0  0  0  0  0  0  0
    1.5000    0.0000    0.0000 C   0  0  0  0  0  0  0  0  0  0  0  0
    0.7500    1.2990    0.0000 C   0  0  0  0  0  0  0  0  0  0  0  0
   -0.7500    1.2990    0.0000 C   0  0  0  0  0  0  0  0  0  0  0  0
   -1.5000    0.0000    0.0000 C   0  0  0  0  0  0  0  0  0  0  0  0
   -0.7500   -1.2990    0.0000 C   0  0  0  0  0  0  0  0  0  0  0  0
   -1.5000    2.5981    0.0000 C   0  0  0  0  0  0  0  0  0  0  0  0
   -3.0000    2.5981    0.0000 O   0  0  0  0  0  0  0  0  0  0  0  0
   -0.7500    3.8971    0.0000 O   0  0  0  0  0  0  0  0  0  0  0  0
    6.7618    0.0000    0.0000 C   0  0  0  0  0  0  0  0  0  0  0  0
    8.0608    0.7500    0.0000 S   0  0  0  0  0  0  0  0  0  0  0  0
    8.8108   -0.5490    0.0000 O   0  0  0  0  0  0  0  0  0  0  0  0
    7.3108    2.0490    0.0000 O   0  0  0  0  0  0  0  0  0  0  0  0
    9.3598    1.5000    0.0000 O   0  0  0  0  0  0  0  0  0  0  0  0
  1  2  1  0
  2  3  1  0
  3  4  1  0
  4  5  1  0
  5  6  2  0
  6  7  1  0
  7  8  2  0
  8  9  1  0
  9 10  2  0
 10 11  1  0
 11 12  1  0
 12 13  2  0
 13 14  1  0
 14 15  2  0
 15 16  1  0
 10 17  1  0
 17 18  2  0
 17 19  1  0
  8 20  1  0
 20 21  1  0
 21 22  1  0
 22 23  2  0
 23 24  1  0
 24 25  2  0
 25 26  1  0
 26 27  2  0
 25 28  1  0
 28 29  2  0
 28 30  1  0
 31 32  1  0
 32 33  2  0
 32 34  2  0
 32 35  1  0
 20  5  1  0
 16 12  1  0
 27 22  1  0
M  END
$$$$
27185
     RDKit          2D

 31 33  0  0  0  0  0  0  0  0999 V2000
    2.5981   -8.1073    0.0000 C   0  0  0  0  0  0  0  0  0  0  0  0
    1.2990   -7.3573    0.0000 C   0  0  0  0  0  0  0  0  0  0  0  0
    1.2990   -5.8573    0.0000 C   0  0  0  0  0  0  0  0  0  0  0  0
   -0.0000   -5.1073    0.0000 C   0  0  0  0  0  0  0  0  0  0  0  0
   -0.0000   -3.6073    0.0000 C   0  0  0  0  0  0  0  0  0  0  0  0
    1.2135   -2.7256    0.0000 O   0  0  0  0  0  0  0  0  0  0  0  0
    0.7500   -1.2990    0.0000 C   0  0  0  0  0  0  0  0  0  0  0  0
    1.5000    0.0000    0.0000 C   0  0  0  0  0  0  0  0  0  0  0  0
    0.7500    1.2990    0.0000 C   0  0  0  0  0  0  0  0  0  0  0  0
   -0.7500    1.2990    0.0000 C   0  0  0  0  0  0  0  0  0  0  0  0
   -1.5000    0.0000    0.0000 C   0  0  0  0  0  0  0  0  0  0  0  0
   -0.7500   -1.2990    0.0000 C   0  0  0  0  0  0  0  0  0  0  0  0
   -1.2135   -2.7256    0.0000 C   0  0  0  0  0  0  0  0  0  0  0  0
   -2.6401   -3.1891    0.0000 C   0  0  0  0  0  0  0  0  0  0  0  0
   -3.7548   -2.1855    0.0000 O   0  0  0  0  0  0  0  0  0  0  0  0
   -2.9520   -4.6564    0.0000 C   0  0  0  0  0  0  0  0  0  0  0  0
   -4.3786   -5.1199    0.0000 C   0  0  0  0  0  0  0  0  0  0  0  0
   -4.6904   -6.5871    0.0000 C   0  0  0  0  0  0  0  0  0  0  0  0
   -6.1170   -7.0506    0.0000 I   0  0  0  0  0  0  0  0  0  0  0  0
   -3.5757   -7.5908    0.0000 C   0  0  0  0  0  0  0  0  0  0  0  0
   -3.8876   -9.0580    0.0000 O   0  0  0  0  0  0  0  0  0  0  0  0
   -2.7729  -10.0617    0.0000 C   0  0  0  0  0  0  0  0  0  0  0  0
   -3.0847  -11.5290    0.0000 C   0  0  0  0  0  0  0  0  0  0  0  0
   -1.9700  -12.5326    0.0000 N   0  0  0  0  0  0  0  0  0  0  0  0
   -2.2819  -13.9999    0.0000 C   0  0  0  0  0  0  0  0  0  0  0  0
   -1.1672  -15.0036    0.0000 C   0  0  0  0  0  0  0  0  0  0  0  0
   -0.5434  -12.0691    0.0000 C   0  0  0  0  0  0  0  0  0  0  0  0
    0.5713  -13.0728    0.0000 C   0  0  0  0  0  0  0  0  0  0  0  0
   -2.1491   -7.1273    0.0000 C   0  0  0  0  0  0  0  0  0  0  0  0
   -1.0344   -8.1310    0.0000 I   0  0  0  0  0  0  0  0  0  0  0  0
   -1.8373   -5.6601    0.0000 C   0  0  0  0  0  0  0  0  0  0  0  0
  1  2  1  0
  2  3  1  0
  3  4  1  0
  4  5  1  0
  5  6  1  0
  6  7  1  0
  7  8  2  0
  8  9  1  0
  9 10  2  0
 10 11  1  0
 11 12  2  0
 12 13  1  0
 13 14  1  0
 14 15  2  0
 14 16  1  0
 16 17  2  0
 17 18  1  0
 18 19  1  0
 18 20  2  0
 20 21  1  0
 21 22  1  0
 22 23  1  0
 23 24  1  0
 24 25  1  0
 25 26  1  0
 24 27  1  0
 27 28  1  0
 20 29  1  0
 29 30  1  0
 29 31  2  0
 13  5  2  0
 12  7  1  0
 31 16  1  0
M  END
$$$$
4496
     RDKit          2D

 23 25  0  0  0  0  0  0  0  0999 V2000
    3.7500  -11.6913    0.0000 C   0  0  0  0  0  0  0  0  0  0  0  0
    3.0000  -10.3923    0.0000 C   0  0  0  0  0  0  0  0  0  0  0  0
    3.7500   -9.0933    0.0000 C   0  0  0  0  0  0  0  0  0  0  0  0
    3.0000   -7.7942    0.0000 C   0  0  0  0  0  0  0  0  0  0  0  0
    3.7500   -6.4952    0.0000 C   0  0  0  0  0  0  0  0  0  0  0  0
    3.0000   -5.1962    0.0000 C   0  0  0  0  0  0  0  0  0  0  0  0
    3.7500   -3.8971    0.0000 C   0  0  0  0  0  0  0  0  0  0  0  0
    3.0000   -2.5981    0.0000 C   0  0  0  0  0  0  0  0  0  0  0  0
    3.7500   -1.2990    0.0000 O   0  0  0  0  0  0  0  0  0  0  0  0
    1.5000   -2.5981    0.0000 C   0  0  0  0  0  0  0  0  0  0  0  0
    0.7500   -1.2990    0.0000 C   0  0  0  0  0  0  0  0  0  0  0  0
    1.5000    0.0000    0.0000 C   0  0  0  0  0  0  0  0  0  0  0  0
    0.7500    1.2990    0.0000 C   0  0  0  0  0  0  0  0  0  0  0  0
    1.5000    2.5981    0.0000 C   0  0  0  0  0  0  0  0  0  0  0  0
   -0.7500    1.2990    0.0000 C   0  0  0  0  0  0  0  0  0  0  0  0
   -1.5000    0.0000    0.0000 C   0  0  0  0  0  0  0  0  0  0  0  0
   -0.7500   -1.2990    0.0000 C   0  0  0  0  0  0  0  0  0  0  0  0
   -1.5000   -2.5981    0.0000 C   0  0  0  0  0  0  0  0  0  0  0  0
   -2.6491   -3.5623    0.0000 C   0  0  0  0  0  0  0  0  0  0  0  0
   -2.6491   -1.6339    0.0000 C   0  0  0  0  0  0  0  0  0  0  0  0
   -0.7500   -3.8971    0.0000 O   0  0  0  0  0  0  0  0  0  0  0  0
    0.7500   -3.8971    0.0000 C   0  0  0  0  0  0  0  0  0  0  0  0
    1.5000   -5.1962    0.0000 C   0  0  0  0  0  0  0  0  0  0  0  0
  1  2  1  0
  2  3  1  0
  3  4  1  0
  4  5  1  0
  5  6  1  0
  6  7  2  0
  7  8  1  0
  8  9  1  0
  8 10  2  0
 10 11  1  0
 11 12  1  1
 12 13  2  0
 13 14  1  0
 13 15  1  0
 15 16  1  0
 17 16  1  6
 17 18  1  0
 18 19  1  0
 18 20  1  0
 18 21  1  0
 21 22  1  0
 22 23  2  0
 23  6  1  0
 22 10  1  0
 17 11  1  0
M  END
$$$$
1449169
     RDKit          2D

 27 29  0  0  0  0  0  0  0  0999 V2000
   10.5000  -10.3923    0.0000 C   0  0  0  0  0  0  0  0  0  0  0  0
    9.0000  -10.3923    0.0000 C   0  0  0  0  0  0  0  0  0  0  0  0
    8.2500   -9.0933    0.0000 C   0  0  0  0  0  0  0  0  0  0  0  0
    6.7500   -9.0933    0.0000 C   0  0  0  0  0  0  0  0  0  0  0  0
    6.0000   -7.7942    0.0000 C   0  0  0  0  0  0  0  0  0  0  0  0
    4.5000   -7.7942    0.0000 C   0  0  0  0  0  0  0  0  0  0  0  0
    3.7500   -6.4952    0.0000 C   0  0  0  0  0  0  0  0  0  0  0  0
    2.4510   -7.2452    0.0000 C   0  0  0  0  0  0  0  0  0  0  0  0
    5.0490   -5.7452    0.0000 C   0  0  0  0  0  0  0  0  0  0  0  0
    3.0000   -5.1962    0.0000 C   0  0  0  0  0  0  0  0  0  0  0  0
    3.7500   -3.8971    0.0000 C   0  0  0  0  0  0  0  0  0  0  0  0
    3.0000   -2.5981    0.0000 C   0  0  0  0  0  0  0  0  0  0  0  0
    3.7500   -1.2990    0.0000 O   0  0  0  0  0  0  0  0  0  0  0  0
    1.5000   -2.5981    0.0000 C   0  0  0  0  0  0  0  0  0  0  0  0
    0.7500   -1.2990    0.0000 C   0  0  0  0  0  0  0  0  0  0  0  0
    1.5000    0.0000    0.0000 C   0  0  0  0  0  0  0  0  0  0  0  0
    0.7500    1.2990    0.0000 C   0  0  0  0  0  0  0  0  0  0  0  0
    1.5000    2.5981    0.0000 O   0  0  0  0  0  0  0  0  0  0  0  0
   -0.7500    1.2990    0.0000 C   0  0  0  0  0  0  0  0  0  0  0  0
   -1.5000    0.0000    0.0000 C   0  0  0  0  0  0  0  0  0  0  0  0
   -0.7500   -1.2990    0.0000 C   0  0  0  0  0  0  0  0  0  0  0  0
   -1.5000   -2.5981    0.0000 C   0  0  0  0  0  0  0  0  0  0  0  0
   -2.6491   -3.5623    0.0000 C   0  0  0  0  0  0  0  0  0  0  0  0
   -2.6491   -1.6339    0.0000 C   0  0  0  0  0  0  0  0  0  0  0  0
   -0.7500   -3.8971    0.0000 O   0  0  0  0  0  0  0  0  0  0  0  0
    0.7500   -3.8971    0.0000 C   0  0  0  0  0  0  0  0  0  0  0  0
    1.5000   -5.1962    0.0000 C   0  0  0  0  0  0  0  0  0  0  0  0
  1  2  1  0
  2  3  1  0
  3  4  1  0
  4  5  1  0
  5  6  1  0
  6  7  1  0
  7  8  1  0
  7  9  1  0
  7 10  1  0
 10 11  2  0
 11 12  1  0
 12 13  1  0
 12 14  2  0
 14 15  1  0
 15 16  1  0
 16 17  1  0
 17 18  2  0
 17 19  1  0
 19 20  1  0
 20 21  1  0
 21 22  1  0
 22 23  1  0
 22 24  1  0
 22 25  1  0
 25 26  1  0
 26 27  2  0
 27 10  1  0
 26 14  1  0
 21 15  1  0
M  END
$$$$
1383028
     RDKit          2D

 29 31  0  0  0  0  0  0  0  0999 V2000
  -12.7500    1.2990    0.0000 C   0  0  0  0  0  0  0  0  0  0  0  0
  -12.0000    0.0000    0.0000 C   0  0  0  0  0  0  0  0  0  0  0  0
  -10.5000    0.0000    0.0000 C   0  0  0  0  0  0  0  0  0  0  0  0
   -9.7500   -1.2990    0.0000 C   0  0  0  0  0  0  0  0  0  0  0  0
   -8.2500   -1.2990    0.0000 C   0  0  0  0  0  0  0  0  0  0  0  0
   -7.5000   -2.5981    0.0000 C   0  0  0  0  0  0  0  0  0  0  0  0
   -6.0000   -2.5981    0.0000 C   0  0  0  0  0  0  0  0  0  0  0  0
   -5.2500   -3.8971    0.0000 C   0  0  0  0  0  0  0  0  0  0  0  0
   -6.0000   -5.1962    0.0000 O   0  0  0  0  0  0  0  0  0  0  0  0
   -3.7500   -3.8971    0.0000 N   0  0  0  0  0  0  0  0  0  0  0  0
   -3.0000   -5.1962    0.0000 C   0  0  0  0  0  0  0  0  0  0  0  0
   -3.7500   -6.4952    0.0000 C   0  0  0  0  0  0  0  0  0  0  0  0
   -3.0000   -7.7942    0.0000 N   0  0  0  0  0  0  0  0  0  0  0  0
   -3.6101   -9.1645    0.0000 C   0  0  0  0  0  0  0  0  0  0  0  0
   -2.4954  -10.1682    0.0000 C   0  0  0  0  0  0  0  0  0  0  0  0
   -1.1963   -9.4182    0.0000 C   0  0  0  0  0  0  0  0  0  0  0  0
   -1.5082   -7.9510    0.0000 C   0  0  0  0  0  0  0  0  0  0  0  0
   -1.5000   -5.1962    0.0000 C   0  0  0  0  0  0  0  0  0  0  0  0
   -0.7500   -6.4952    0.0000 O   0  0  0  0  0  0  0  0  0  0  0  0
   -0.7500   -3.8971    0.0000 C   0  0  0  0  0  0  0  0  0  0  0  0
    0.7500   -3.8971    0.0000 C   0  0  0  0  0  0  0  0  0  0  0  0
    1.5000   -2.5981    0.0000 C   0  0  0  0  0  0  0  0  0  0  0  0
    0.7500   -1.2990    0.0000 C   0  0  0  0  0  0  0  0  0  0  0  0
    1.5000    0.0000    0.0000 O   0  0  0  0  0  0  0  0  0  0  0  0
    0.7500    1.2990    0.0000 C   0  0  0  0  0  0  0  0  0  0  0  0
   -0.7500    1.2990    0.0000 C   0  0  0  0  0  0  0  0  0  0  0  0
   -1.5000    0.0000    0.0000 O   0  0  0  0  0  0  0  0  0  0  0  0
   -0.7500   -1.2990    0.0000 C   0  0  0  0  0  0  0  0  0  0  0  0
   -1.5000   -2.5981    0.0000 C   0  0  0  0  0  0  0  0  0  0  0  0
  1  2  1  0
  2  3  1  0
  3  4  1  0
  4  5  1  0
  5  6  1  0
  6  7  1  0
  7  8  1  0
  8  9  2  0
  8 10  1  0
 10 11  1  0
 11 12  1  1
 12 13  1  0
 13 14  1  0
 14 15  1  0
 15 16  1  0
 16 17  1  0
 11 18  1  0
 18 19  1  1
 18 20  1  0
 20 21  2  0
 21 22  1  0
 22 23  2  0
 23 24  1  0
 24 25  1  0
 25 26  1  0
 26 27  1  0
 27 28  1  0
 28 29  2  0
 17 13  1  0
 29 20  1  0
 28 23  1  0
M  END
$$$$
1376123
     RDKit          2D

 39 40  0  0  0  0  0  0  0  0999 V2000
  -12.7500    1.2990    0.0000 C   0  0  0  0  0  0  0  0  0  0  0  0
  -12.0000    0.0000    0.0000 C   0  0  0  0  0  0  0  0  0  0  0  0
  -10.5000    0.0000    0.0000 C   0  0  0  0  0  0  0  0  0  0  0  0
   -9.7500   -1.2990    0.0000 C   0  0  0  0  0  0  0  0  0  0  0  0
   -8.2500   -1.2990    0.0000 C   0  0  0  0  0  0  0  0  0  0  0  0
   -7.5000   -2.5981    0.0000 C   0  0  0  0  0  0  0  0  0  0  0  0
   -6.0000   -2.5981    0.0000 C   0  0  0  0  0  0  0  0  0  0  0  0
   -5.2500   -3.8971    0.0000 C   0  0  0  0  0  0  0  0  0  0  0  0
   -6.0000   -5.1962    0.0000 O   0  0  0  0  0  0  0  0  0  0  0  0
   -3.7500   -3.8971    0.0000 N   0  0  0  0  0  0  0  0  0  0  0  0
   -3.0000   -5.1962    0.0000 C   0  0  0  0  0  0  0  0  0  0  0  0
   -3.7500   -6.4952    0.0000 C   0  0  0  0  0  0  0  0  0  0  0  0
   -3.0000   -7.7942    0.0000 N   0  0  0  0  0  0  0  0  0  0  0  0
   -3.6101   -9.1645    0.0000 C   0  0  0  0  0  0  0  0  0  0  0  0
   -2.4954  -10.1682    0.0000 C   0  0  0  0  0  0  0  0  0  0  0  0
   -1.1963   -9.4182    0.0000 C   0  0  0  0  0  0  0  0  0  0  0  0
   -1.5082   -7.9510    0.0000 C   0  0  0  0  0  0  0  0  0  0  0  0
   -1.5000   -5.1962    0.0000 C   0  0  0  0  0  0  0  0  0  0  0  0
   -0.7500   -6.4952    0.0000 O   0  0  0  0  0  0  0  0  0  0  0  0
   -0.7500   -3.8971    0.0000 C   0  0  0  0  0  0  0  0  0  0  0  0
    0.7500   -3.8971    0.0000 C   0  0  0  0  0  0  0  0  0  0  0  0
    1.5000   -2.5981    0.0000 C   0  0  0  0  0  0  0  0  0  0  0  0
    0.7500   -1.2990    0.0000 C   0  0  0  0  0  0  0  0  0  0  0  0
    1.5000    0.0000    0.0000 O   0  0  0  0  0  0  0  0  0  0  0  0
    0.7500    1.2990    0.0000 C   0  0  0  0  0  0  0  0  0  0  0  0
   -0.7500    1.2990    0.0000 C   0  0  0  0  0  0  0  0  0  0  0  0
   -1.5000    0.0000    0.0000 O   0  0  0  0  0  0  0  0  0  0  0  0
   -0.7500   -1.2990    0.0000 C   0  0  0  0  0  0  0  0  0  0  0  0
   -1.5000   -2.5981    0.0000 C   0  0  0  0  0  0  0  0  0  0  0  0
   -0.0000    2.2990    0.0000 O   0  0  0  0  0  0  0  0  0  0  0  0
    0.0000    3.7990    0.0000 C   0  0  0  0  0  0  0  0  0  0  0  0
    1.2990    4.5490    0.0000 C   0  0  0  0  0  0  0  0  0  0  0  0
    1.2990    6.0490    0.0000 O   0  0  0  0  0  0  0  0  0  0  0  0
    2.5981    3.7990    0.0000 C   0  0  0  0  0  0  0  0  0  0  0  0
    2.5981    2.2990    0.0000 O   0  0  0  0  0  0  0  0  0  0  0  0
    3.8971    4.5490    0.0000 O   0  0  0  0  0  0  0  0  0  0  0  0
   -1.2990    4.5490    0.0000 C   0  0  0  0  0  0  0  0  0  0  0  0
   -1.2990    6.0490    0.0000 O   0  0  0  0  0  0  0  0  0  0  0  0
   -2.5981    3.7990    0.0000 O   0  0  0  0  0  0  0  0  0  0  0  0
  1  2  1  0
  2  3  1  0
  3  4  1  0
  4  5  1  0
  5  6  1  0
  6  7  1  0
  7  8  1  0
  8  9  2  0
  8 10  1  0
 10 11  1  0
 11 12  1  1
 12 13  1  0
 13 14  1  0
 14 15  1  0
 15 16  1  0
 16 17  1  0
 11 18  1  0
 18 19  1  1
 18 20  1  0
 20 21  2  0
 21 22  1  0
 22 23  2  0
 23 24  1  0
 24 25  1  0
 25 26  1  0
 26 27  1  0
 27 28  1  0
 28 29  2  0
 30 31  1  0
 31 32  1  0
 32 33  1  0
 32 34  1  0
 34 35  2  0
 34 36  1  0
 31 37  1  0
 37 38  2  0
 37 39  1  0
 17 13  1  0
 29 20  1  0
 28 23  1  0
M  END
$$$$
144940
     RDKit          2D

 22 22  0  0  0  0  0  0  0  0999 V2000
   10.5000   -5.1962    0.0000 C   0  0  0  0  0  0  0  0  0  0  0  0
    9.7500   -3.8971    0.0000 C   0  0  0  0  0  0  0  0  0  0  0  0
    8.2500   -3.8971    0.0000 C   0  0  0  0  0  0  0  0  0  0  0  0
    7.5000   -2.5981    0.0000 C   0  0  0  0  0  0  0  0  0  0  0  0
    6.0000   -2.5981    0.0000 C   0  0  0  0  0  0  0  0  0  0  0  0
    5.2500   -1.2990    0.0000 C   0  0  0  0  0  0  0  0  0  0  0  0
    3.7500   -1.2990    0.0000 C   0  0  0  0  0  0  0  0  0  0  0  0
    3.0000    0.0000    0.0000 C   0  0  0  0  0  0  0  0  0  0  0  0
    1.5000    0.0000    0.0000 C   0  0  0  0  0  0  0  0  0  0  0  0
    0.7500   -1.2990    0.0000 C   0  0  0  0  0  0  0  0  0  0  0  0
   -0.7500   -1.2990    0.0000 C   0  0  0  0  0  0  0  0  0  0  0  0
   -1.5000    0.0000    0.0000 C   0  0  0  0  0  0  0  0  0  0  0  0
   -3.0000    0.0000    0.0000 C   0  0  0  0  0  0  0  0  0  0  0  0
   -3.7500    1.2990    0.0000 C   0  0  0  0  0  0  0  0  0  0  0  0
   -5.2500    1.2990    0.0000 C   0  0  0  0  0  0  0  0  0  0  0  0
   -5.2500   -0.2010    0.0000 N   0  0  0  0  0  0  0  0  0  0  0  0
   -6.7500    1.2990    0.0000 C   0  0  0  0  0  0  0  0  0  0  0  0
   -7.5000    0.0000    0.0000 O   0  0  0  0  0  0  0  0  0  0  0  0
   -5.2500    2.7990    0.0000 C   0  0  0  0  0  0  0  0  0  0  0  0
   -6.5490    3.5490    0.0000 O   0  0  0  0  0  0  0  0  0  0  0  0
   -0.7500    1.2990    0.0000 C   0  0  0  0  0  0  0  0  0  0  0  0
    0.7500    1.2990    0.0000 C   0  0  0  0  0  0  0  0  0  0  0  0
  1  2  1  0
  2  3  1  0
  3  4  1  0
  4  5  1  0
  5  6  1  0
  6  7  1  0
  7  8  1  0
  8  9  1  0
  9 10  2  0
 10 11  1  0
 11 12  2  0
 12 13  1  0
 13 14  1  0
 14 15  1  0
 15 16  1  0
 15 17  1  0
 17 18  1  0
 15 19  1  0
 19 20  1  0
 12 21  1  0
 21 22  2  0
 22  9  1  0
M  END
$$$$
420999
     RDKit          2D

 37 37  0  0  0  0  0  0  0  0999 V2000
   24.0000  -12.9904    0.0000 C   0  0  0  0  0  0  0  0  0  0  0  0
   23.2500  -11.6913    0.0000 C   0  0  0  0  0  0  0  0  0  0  0  0
   21.7500  -11.6913    0.0000 C   0  0  0  0  0  0  0  0  0  0  0  0
   21.0000  -10.3923    0.0000 C   0  0  0  0  0  0  0  0  0  0  0  0
   19.5000  -10.3923    0.0000 C   0  0  0  0  0  0  0  0  0  0  0  0
   18.7500   -9.0933    0.0000 C   0  0  0  0  0  0  0  0  0  0  0  0
   17.2500   -9.0933    0.0000 C   0  0  0  0  0  0  0  0  0  0  0  0
   16.5000   -7.7942    0.0000 C   0  0  0  0  0  0  0  0  0  0  0  0
   15.0000   -7.7942    0.0000 C   0  0  0  0  0  0  0  0  0  0  0  0
   14.2500   -6.4952    0.0000 C   0  0  0  0  0  0  0  0  0  0  0  0
   12.7500   -6.4952    0.0000 C   0  0  0  0  0  0  0  0  0  0  0  0
   12.0000   -5.1962    0.0000 C   0  0  0  0  0  0  0  0  0  0  0  0
   10.5000   -5.1962    0.0000 C   0  0  0  0  0  0  0  0  0  0  0  0
    9.7500   -3.8971    0.0000 C   0  0  0  0  0  0  0  0  0  0  0  0
    8.2500   -3.8971    0.0000 C   0  0  0  0  0  0  0  0  0  0  0  0
    7.5000   -2.5981    0.0000 C   0  0  0  0  0  0  0  0  0  0  0  0
    8.2500   -1.2990    0.0000 O   0  0  0  0  0  0  0  0  0  0  0  0
    6.0000   -2.5981    0.0000 O   0  0  0  0  0  0  0  0  0  0  0  0
    5.2500   -1.2990    0.0000 C   0  0  0  0  0  0  0  0  0  0  0  0
    3.7500   -1.2990    0.0000 C   0  0  0  0  0  0  0  0  0  0  0  0
    3.0000   -2.5981    0.0000 N   0  0  0  0  0  0  0  0  0  0  0  0
    3.7500   -3.8971    0.0000 C   0  0  0  0  0  0  0  0  0  0  0  0
    5.2500   -3.8971    0.0000 O   0  0  0  0  0  0  0  0  0  0  0  0
    3.0000   -5.1962    0.0000 C   0  0  0  0  0  0  0  0  0  0  0  0
    3.7500   -6.4952    0.0000 Cl  0  0  0  0  0  0  0  0  0  0  0  0
    1.5000   -5.1962    0.0000 Cl  0  0  0  0  0  0  0  0  0  0  0  0
    3.0000    0.0000    0.0000 C   0  0  0  0  0  0  0  0  0  0  0  0
    3.7500    1.2990    0.0000 O   0  0  0  0  0  0  0  0  0  0  0  0
    1.5000    0.0000    0.0000 C   0  0  0  0  0  0  0  0  0  0  0  0
    0.7500   -1.2990    0.0000 C   0  0  0  0  0  0  0  0  0  0  0  0
   -0.7500   -1.2990    0.0000 C   0  0  0  0  0  0  0  0  0  0  0  0
   -1.5000    0.0000    0.0000 C   0  0  0  0  0  0  0  0  0  0  0  0
   -0.7500    1.2990    0.0000 C   0  0  0  0  0  0  0  0  0  0  0  0
    0.7500    1.2990    0.0000 C   0  0  0  0  0  0  0  0  0  0  0  0
   -3.0000    0.0000    0.0000 N   0  0  0  0  0  4  0  0  0  0  0  0
   -3.7500   -1.2990    0.0000 O   0  0  0  0  0  0  0  0  0  0  0  0
   -3.7500    1.2990    0.0000 O   0  0  0  0  0  1  0  0  0  0  0  0
  1  2  1  0
  2  3  1  0
  3  4  1  0
  4  5  1  0
  5  6  1  0
  6  7  1  0
  7  8  1  0
  8  9  1  0
  9 10  1  0
 10 11  1  0
 11 12  1  0
 12 13  1  0
 13 14  1  0
 14 15  1  0
 15 16  1  0
 16 17  2  0
 16 18  1  0
 18 19  1  0
 20 19  1  1
 20 21  1  0
 21 22  1  0
 22 23  2  0
 22 24  1  0
 24 25  1  0
 24 26  1  0
 20 27  1  0
 27 28  1  1
 27 29  1  0
 29 30  2  0
 30 31  1  0
 31 32  2  0
 32 33  1  0
 33 34  2  0
 32 35  1  0
 35 36  2  0
 35 37  1  0
 34 29  1  0
M  CHG  2  35   1  37  -1
M  END
$$$$
699471
     RDKit          2D

 44 45  0  0  0  0  0  0  0  0999 V2000
   21.0000   10.3923    0.0000 C   0  0  0  0  0  0  0  0  0  0  0  0
   19.5000   10.3923    0.0000 C   0  0  0  0  0  0  0  0  0  0  0  0
   18.7500    9.0933    0.0000 C   0  0  0  0  0  0  0  0  0  0  0  0
   17.2500    9.0933    0.0000 C   0  0  0  0  0  0  0  0  0  0  0  0
   16.5000    7.7942    0.0000 C   0  0  0  0  0  0  0  0  0  0  0  0
   15.0000    7.7942    0.0000 C   0  0  0  0  0  0  0  0  0  0  0  0
   14.2500    6.4952    0.0000 C   0  0  0  0  0  0  0  0  0  0  0  0
   12.7500    6.4952    0.0000 C   0  0  0  0  0  0  0  0  0  0  0  0
   12.0000    5.1962    0.0000 C   0  0  0  0  0  0  0  0  0  0  0  0
   10.5000    5.1962    0.0000 C   0  0  0  0  0  0  0  0  0  0  0  0
    9.7500    3.8971    0.0000 C   0  0  0  0  0  0  0  0  0  0  0  0
    8.2500    3.8971    0.0000 C   0  0  0  0  0  0  0  0  0  0  0  0
    7.5000    2.5981    0.0000 C   0  0  0  0  0  0  0  0  0  0  0  0
    6.0000    2.5981    0.0000 C   0  0  0  0  0  0  0  0  0  0  0  0
    5.2500    1.2990    0.0000 C   0  0  0  0  0  0  0  0  0  0  0  0
    3.7500    1.2990    0.0000 C   0  0  0  0  0  0  0  0  0  0  0  0
    3.0000    2.5981    0.0000 O   0  0  0  0  0  0  0  0  0  0  0  0
    3.0000    0.0000    0.0000 O   0  0  0  0  0  0  0  0  0  0  0  0
    1.5000    0.0000    0.0000 C   0  0  0  0  0  0  0  0  0  0  0  0
    0.7500   -1.2990    0.0000 C   0  0  0  0  0  0  0  0  0  0  0  0
    1.5000   -2.5981    0.0000 O   0  0  0  0  0  0  0  0  0  0  0  0
   -0.7500   -1.2990    0.0000 C   0  0  0  0  0  0  0  0  0  0  0  0
   -1.5000   -2.5981    0.0000 O   0  0  0  0  0  0  0  0  0  0  0  0
   -1.5000    0.0000    0.0000 C   0  0  0  0  0  0  0  0  0  0  0  0
   -0.7500    1.2990    0.0000 O   0  0  0  0  0  0  0  0  0  0  0  0
    0.7500    1.2990    0.0000 C   0  0  0  0  0  0  0  0  0  0  0  0
    1.5000    2.5981    0.0000 S   0  0  0  0  0  0  0  0  0  0  0  0
    0.7500    3.8971    0.0000 C   0  0  0  0  0  0  0  0  0  0  0  0
   -3.0000    0.0000    0.0000 C   0  0  0  0  0  0  0  0  0  0  0  0
   -3.7500   -1.2990    0.0000 N   0  0  0  0  0  0  0  0  0  0  0  0
   -5.2500   -1.2990    0.0000 C   0  0  0  0  0  0  0  0  0  0  0  0
   -6.0000    0.0000    0.0000 O   0  0  0  0  0  0  0  0  0  0  0  0
   -6.0000   -2.5981    0.0000 C   0  0  0  0  0  0  0  0  0  0  0  0
   -5.3899   -3.9684    0.0000 C   0  0  0  0  0  0  0  0  0  0  0  0
   -6.5046   -4.9721    0.0000 C   0  0  0  0  0  0  0  0  0  0  0  0
   -6.3478   -6.4639    0.0000 C   0  0  0  0  0  0  0  0  0  0  0  0
   -7.5613   -7.3456    0.0000 C   0  0  0  0  0  0  0  0  0  0  0  0
   -7.4046   -8.8373    0.0000 C   0  0  0  0  0  0  0  0  0  0  0  0
   -7.8037   -4.2221    0.0000 C   0  0  0  0  0  0  0  0  0  0  0  0
   -7.4918   -2.7549    0.0000 N   0  0  0  0  0  0  0  0  0  0  0  0
   -8.4955   -1.6402    0.0000 C   0  0  0  0  0  0  0  0  0  0  0  0
   -3.7500    1.2990    0.0000 C   0  0  0  0  0  0  0  0  0  0  0  0
   -5.2500    1.2990    0.0000 C   0  0  0  0  0  0  0  0  0  0  0  0
   -3.0000    2.5981    0.0000 Cl  0  0  0  0  0  0  0  0  0  0  0  0
  1  2  1  0
  2  3  1  0
  3  4  1  0
  4  5  1  0
  5  6  1  0
  6  7  1  0
  7  8  1  0
  8  9  1  0
  9 10  1  0
 10 11  1  0
 11 12  1  0
 12 13  1  0
 13 14  1  0
 14 15  1  0
 15 16  1  0
 16 17  2  0
 16 18  1  0
 19 18  1  6
 19 20  1  0
 20 21  1  1
 20 22  1  0
 22 23  1  1
 22 24  1  0
 24 25  1  0
 25 26  1  0
 26 27  1  6
 27 28  1  0
 24 29  1  6
 29 30  1  0
 30 31  1  0
 31 32  2  0
 33 31  1  6
 33 34  1  0
 34 35  1  0
 35 36  1  1
 36 37  1  0
 37 38  1  0
 35 39  1  0
 39 40  1  0
 40 41  1  0
 29 42  1  0
 42 43  1  6
 42 44  1  0
 26 19  1  0
 40 33  1  0
M  END
$$$$
674461
     RDKit          2D

 71 72  0  0  0  0  0  0  0  0999 V2000
    0.0000    5.7484    0.0000 C   0  0  0  0  0  0  0  0  0  0  0  0
    1.2990    6.4984    0.0000 C   0  0  0  0  0  0  0  0  0  0  0  0
    2.5981    5.7484    0.0000 C   0  0  0  0  0  0  0  0  0  0  0  0
    3.8971    6.4984    0.0000 C   0  0  0  0  0  0  0  0  0  0  0  0
    5.1962    5.7484    0.0000 C   0  0  0  0  0  0  0  0  0  0  0  0
    6.4952    6.4984    0.0000 C   0  0  0  0  0  0  0  0  0  0  0  0
    7.7942    5.7484    0.0000 C   0  0  0  0  0  0  0  0  0  0  0  0
    9.0933    6.4984    0.0000 C   0  0  0  0  0  0  0  0  0  0  0  0
   10.3923    5.7484    0.0000 C   0  0  0  0  0  0  0  0  0  0  0  0
   11.6913    6.4984    0.0000 C   0  0  0  0  0  0  0  0  0  0  0  0
   12.9904    5.7484    0.0000 C   0  0  0  0  0  0  0  0  0  0  0  0
   14.2894    6.4984    0.0000 C   0  0  0  0  0  0  0  0  0  0  0  0
   15.5885    5.7484    0.0000 C   0  0  0  0  0  0  0  0  0  0  0  0
   16.8875    6.4984    0.0000 C   0  0  0  0  0  0  0  0  0  0  0  0
   18.1865    5.7484    0.0000 C   0  0  0  0  0  0  0  0  0  0  0  0
   19.4856    6.4984    0.0000 C   0  0  0  0  0  0  0  0  0  0  0  0
   20.7846    5.7484    0.0000 C   0  0  0  0  0  0  0  0  0  0  0  0
   22.0836    6.4984    0.0000 C   0  0  0  0  0  0  0  0  0  0  0  0
   22.0836    7.9984    0.0000 O   0  0  0  0  0  0  0  0  0  0  0  0
   23.3827    5.7484    0.0000 O   0  0  0  0  0  0  0  0  0  0  0  0
    5.6205   -1.2990    0.0000 C   0  0  0  0  0  0  0  0  0  0  0  0
    4.8705    0.0000    0.0000 C   0  0  0  0  0  0  0  0  0  0  0  0
    3.3705    0.0000    0.0000 C   0  0  0  0  0  0  0  0  0  0  0  0
    3.0367   -1.4624    0.0000 O   0  0  0  0  0  0  0  0  0  0  0  0
    2.1015   -2.6351    0.0000 C   0  0  0  0  0  0  0  0  0  0  0  0
    3.0367   -3.8079    0.0000 O   0  0  0  0  0  0  0  0  0  0  0  0
    0.7500   -3.2860    0.0000 C   0  0  0  0  0  0  0  0  0  0  0  0
    1.3600   -4.4903    0.0000 C   0  0  0  0  0  0  0  0  0  0  0  0
   -0.7500   -3.2860    0.0000 C   0  0  0  0  0  0  0  0  0  0  0  0
   -1.0838   -4.7484    0.0000 O   0  0  0  0  0  0  0  0  0  0  0  0
    0.0158   -5.7686    0.0000 C   0  0  0  0  0  0  0  0  0  0  0  0
   -0.3180   -7.2310    0.0000 C   0  0  0  0  0  0  0  0  0  0  0  0
    0.7816   -8.2513    0.0000 C   0  0  0  0  0  0  0  0  0  0  0  0
    1.4659   -9.5861    0.0000 C   0  0  0  0  0  0  0  0  0  0  0  0
   -0.4141   -9.1570    0.0000 O   0  0  0  0  0  0  0  0  0  0  0  0
   -0.2276  -10.6453    0.0000 C   0  0  0  0  0  0  0  0  0  0  0  0
    2.2150   -7.8091    0.0000 C   0  0  0  0  0  0  0  0  0  0  0  0
    3.3145   -8.8294    0.0000 O   0  0  0  0  0  0  0  0  0  0  0  0
    2.5487   -6.3467    0.0000 C   0  0  0  0  0  0  0  0  0  0  0  0
    3.9821   -5.9046    0.0000 C   0  0  0  0  0  0  0  0  0  0  0  0
    1.4492   -5.3265    0.0000 O   0  0  0  0  0  0  0  0  0  0  0  0
   -2.1015   -2.6351    0.0000 C   0  0  0  0  0  0  0  0  0  0  0  0
   -3.0367   -3.8079    0.0000 C   0  0  0  0  0  0  0  0  0  0  0  0
   -3.0367   -1.4624    0.0000 C   0  0  0  0  0  0  0  0  0  0  0  0
   -4.3881   -2.1132    0.0000 O   0  0  0  0  0  0  0  0  0  0  0  0
   -5.6275   -1.2682    0.0000 C   0  0  0  0  0  0  0  0  0  0  0  0
   -5.5154    0.2276    0.0000 O   0  0  0  0  0  0  0  0  0  0  0  0
   -6.7548    1.0725    0.0000 C   0  0  0  0  0  0  0  0  0  0  0  0
   -6.6427    2.5684    0.0000 C   0  0  0  0  0  0  0  0  0  0  0  0
   -8.1062    0.4217    0.0000 C   0  0  0  0  0  0  0  0  0  0  0  0
   -8.2183   -1.0741    0.0000 C   0  0  0  0  0  0  0  0  0  0  0  0
   -6.9790   -1.9191    0.0000 C   0  0  0  0  0  0  0  0  0  0  0  0
   -7.0910   -3.4149    0.0000 O   0  0  0  0  0  0  0  0  0  0  0  0
   -9.5698   -1.7249    0.0000 N   0  0  0  0  0  0  0  0  0  0  0  0
  -10.8091   -0.8799    0.0000 C   0  0  0  0  0  0  0  0  0  0  0  0
   -9.6819   -3.2207    0.0000 C   0  0  0  0  0  0  0  0  0  0  0  0
   -3.3705    0.0000    0.0000 C   0  0  0  0  0  0  0  0  0  0  0  0
   -4.6098   -0.8450    0.0000 C   0  0  0  0  0  0  0  0  0  0  0  0
   -4.6098    0.8450    0.0000 O   0  0  0  0  0  0  0  0  0  0  0  0
   -3.0367    1.4624    0.0000 C   0  0  0  0  0  0  0  0  0  0  0  0
   -2.1015    2.6351    0.0000 C   0  0  0  0  0  0  0  0  0  0  0  0
   -3.0367    3.8079    0.0000 C   0  0  0  0  0  0  0  0  0  0  0  0
   -0.7500    3.2860    0.0000 C   0  0  0  0  0  0  0  0  0  0  0  0
   -1.0838    4.7484    0.0000 O   0  0  0  0  0  0  0  0  0  0  0  0
    0.7500    3.2860    0.0000 C   0  0  0  0  0  0  0  0  0  0  0  0
    1.0838    4.7484    0.0000 C   0  0  0  0  0  0  0  0  0  0  0  0
    2.1015    2.6351    0.0000 C   0  0  0  0  0  0  0  0  0  0  0  0
    3.0367    3.8079    0.0000 O   0  0  0  0  0  0  0  0  0  0  0  0
    3.0367    1.4624    0.0000 C   0  0  0  0  0  0  0  0  0  0  0  0
    3.7867    2.7614    0.0000 C   0  0  0  0  0  0  0  0  0  0  0  0
    4.5199    1.2388    0.0000 O   0  0  0  0  0  0  0  0  0  0  0  0
  1  2  1  0
  2  3  1  0
  3  4  1  0
  4  5  1  0
  5  6  1  0
  6  7  1  0
  7  8  1  0
  8  9  1  0
  9 10  1  0
 10 11  1  0
 11 12  1  0
 12 13  1  0
 13 14  1  0
 14 15  1  0
 15 16  1  0
 16 17  1  0
 17 18  1  0
 18 19  2  0
 18 20  1  0
 21 22  1  0
 23 22  1  1
 23 24  1  0
 24 25  1  0
 25 26  2  0
 25 27  1  0
 27 28  1  6
 27 29  1  0
 29 30  1  1
 31 30  1  6
 31 32  1  0
 32 33  1  0
 33 34  1  1
 33 35  1  0
 35 36  1  0
 33 37  1  0
 37 38  1  6
 37 39  1  0
 39 40  1  1
 39 41  1  0
 29 42  1  0
 42 43  1  6
 42 44  1  0
 44 45  1  1
 46 45  1  1
 46 47  1  0
 47 48  1  0
 48 49  1  1
 48 50  1  0
 50 51  1  0
 51 52  1  0
 52 53  1  6
 51 54  1  1
 54 55  1  0
 54 56  1  0
 44 57  1  0
 57 58  1  1
 57 59  1  0
 57 60  1  0
 60 61  1  0
 61 62  1  1
 61 63  1  0
 63 64  2  0
 63 65  1  0
 65 66  1  6
 65 67  1  0
 67 68  1  1
 67 69  1  0
 69 70  1  1
 69 71  1  0
 69 23  1  0
 41 31  1  0
 52 46  1  0
M  END
$$$$
25047
     RDKit          2D

 27 26  0  0  0  0  0  0  0  0999 V2000
    0.0000    0.0000    0.0000 C   0  0  0  0  0  0  0  0  0  0  0  0
    1.2990    0.7500    0.0000 C   0  0  0  0  0  0  0  0  0  0  0  0
    2.5981   -0.0000    0.0000 C   0  0  0  0  0  0  0  0  0  0  0  0
    3.8971    0.7500    0.0000 C   0  0  0  0  0  0  0  0  0  0  0  0
    5.1962   -0.0000    0.0000 C   0  0  0  0  0  0  0  0  0  0  0  0
    6.4952    0.7500    0.0000 C   0  0  0  0  0  0  0  0  0  0  0  0
    7.7942   -0.0000    0.0000 C   0  0  0  0  0  0  0  0  0  0  0  0
    9.0933    0.7500    0.0000 C   0  0  0  0  0  0  0  0  0  0  0  0
   10.3923   -0.0000    0.0000 C   0  0  0  0  0  0  0  0  0  0  0  0
   11.6913    0.7500    0.0000 C   0  0  0  0  0  0  0  0  0  0  0  0
   12.9904   -0.0000    0.0000 C   0  0  0  0  0  0  0  0  0  0  0  0
   14.2894    0.7500    0.0000 C   0  0  0  0  0  0  0  0  0  0  0  0
   15.5885   -0.0000    0.0000 C   0  0  0  0  0  0  0  0  0  0  0  0
   16.8875    0.7500    0.0000 C   0  0  0  0  0  0  0  0  0  0  0  0
   18.1865   -0.0000    0.0000 C   0  0  0  0  0  0  0  0  0  0  0  0
   19.4856    0.7500    0.0000 C   0  0  0  0  0  0  0  0  0  0  0  0
   20.7846   -0.0000    0.0000 O   0  0  0  0  0  0  0  0  0  0  0  0
   22.0836    0.7500    0.0000 P   0  0  0  0  0  0  0  0  0  0  0  0
   21.3336    2.0490    0.0000 O   0  0  0  0  0  0  0  0  0  0  0  0
   22.8336   -0.5490    0.0000 O   0  0  0  0  0  1  0  0  0  0  0  0
   23.3827    1.5000    0.0000 O   0  0  0  0  0  0  0  0  0  0  0  0
   23.3827    3.0000    0.0000 C   0  0  0  0  0  0  0  0  0  0  0  0
   24.6817    3.7500    0.0000 C   0  0  0  0  0  0  0  0  0  0  0  0
   24.6817    5.2500    0.0000 N   0  0  0  0  0  4  0  0  0  0  0  0
   26.1817    5.2500    0.0000 C   0  0  0  0  0  0  0  0  0  0  0  0
   23.1817    5.2500    0.0000 C   0  0  0  0  0  0  0  0  0  0  0  0
   24.6817    6.7500    0.0000 C   0  0  0  0  0  0  0  0  0  0  0  0
  1  2  1  0
  2  3  1  0
  3  4  1  0
  4  5  1  0
  5  6  1  0
  6  7  1  0
  7  8  1  0
  8  9  1  0
  9 10  1  0
 10 11  1  0
 11 12  1  0
 12 13  1  0
 13 14  1  0
 14 15  1  0
 15 16  1  0
 16 17  1  0
 17 18  1  0
 18 19  2  0
 18 20  1  0
 18 21  1  0
 21 22  1  0
 22 23  1  0
 23 24  1  0
 24 25  1  0
 24 26  1  0
 24 27  1  0
M  CHG  2  20  -1  24   1
M  END
$$$$
1449150
     RDKit          2D

 72 73  0  0  0  0  0  0  0  0999 V2000
    0.0000    6.2974    0.0000 C   0  0  0  0  0  0  0  0  0  0  0  0
    1.2990    7.0474    0.0000 C   0  0  0  0  0  0  0  0  0  0  0  0
    2.5981    6.2974    0.0000 C   0  0  0  0  0  0  0  0  0  0  0  0
    3.8971    7.0474    0.0000 C   0  0  0  0  0  0  0  0  0  0  0  0
    5.1962    6.2974    0.0000 C   0  0  0  0  0  0  0  0  0  0  0  0
    6.4952    7.0474    0.0000 C   0  0  0  0  0  0  0  0  0  0  0  0
    7.7942    6.2974    0.0000 C   0  0  0  0  0  0  0  0  0  0  0  0
    9.0933    7.0474    0.0000 C   0  0  0  0  0  0  0  0  0  0  0  0
   10.3923    6.2974    0.0000 C   0  0  0  0  0  0  0  0  0  0  0  0
   11.6913    7.0474    0.0000 C   0  0  0  0  0  0  0  0  0  0  0  0
   12.9904    6.2974    0.0000 C   0  0  0  0  0  0  0  0  0  0  0  0
   14.2894    7.0474    0.0000 C   0  0  0  0  0  0  0  0  0  0  0  0
   15.5885    6.2974    0.0000 O   0  0  0  0  0  0  0  0  0  0  0  0
   16.8875    7.0474    0.0000 S   0  0  0  0  0  0  0  0  0  0  0  0
   16.1375    8.3464    0.0000 O   0  0  0  0  0  0  0  0  0  0  0  0
   17.6375    5.7484    0.0000 O   0  0  0  0  0  0  0  0  0  0  0  0
   18.1865    7.7974    0.0000 O   0  0  0  0  0  0  0  0  0  0  0  0
    5.6205   -1.2990    0.0000 C   0  0  0  0  0  0  0  0  0  0  0  0
    4.8705    0.0000    0.0000 C   0  0  0  0  0  0  0  0  0  0  0  0
    3.3705    0.0000    0.0000 C   0  0  0  0  0  0  0  0  0  0  0  0
    3.0367   -1.4624    0.0000 O   0  0  0  0  0  0  0  0  0  0  0  0
    2.1015   -2.6351    0.0000 C   0  0  0  0  0  0  0  0  0  0  0  0
    3.0367   -3.8079    0.0000 O   0  0  0  0  0  0  0  0  0  0  0  0
    0.7500   -3.2860    0.0000 C   0  0  0  0  0  0  0  0  0  0  0  0
    1.3600   -4.4903    0.0000 C   0  0  0  0  0  0  0  0  0  0  0  0
   -0.7500   -3.2860    0.0000 C   0  0  0  0  0  0  0  0  0  0  0  0
   -1.0838   -4.7484    0.0000 O   0  0  0  0  0  0  0  0  0  0  0  0
    0.0158   -5.7686    0.0000 C   0  0  0  0  0  0  0  0  0  0  0  0
   -0.3180   -7.2310    0.0000 C   0  0  0  0  0  0  0  0  0  0  0  0
    0.7816   -8.2513    0.0000 C   0  0  0  0  0  0  0  0  0  0  0  0
    1.4659   -9.5861    0.0000 C   0  0  0  0  0  0  0  0  0  0  0  0
   -0.4141   -9.1570    0.0000 O   0  0  0  0  0  0  0  0  0  0  0  0
   -0.2276  -10.6453    0.0000 C   0  0  0  0  0  0  0  0  0  0  0  0
    2.2150   -7.8091    0.0000 C   0  0  0  0  0  0  0  0  0  0  0  0
    3.3145   -8.8294    0.0000 O   0  0  0  0  0  0  0  0  0  0  0  0
    2.5487   -6.3467    0.0000 C   0  0  0  0  0  0  0  0  0  0  0  0
    3.9821   -5.9046    0.0000 C   0  0  0  0  0  0  0  0  0  0  0  0
    1.4492   -5.3265    0.0000 O   0  0  0  0  0  0  0  0  0  0  0  0
   -2.1015   -2.6351    0.0000 C   0  0  0  0  0  0  0  0  0  0  0  0
   -3.0367   -3.8079    0.0000 C   0  0  0  0  0  0  0  0  0  0  0  0
   -3.0367   -1.4624    0.0000 C   0  0  0  0  0  0  0  0  0  0  0  0
   -4.3881   -2.1132    0.0000 O   0  0  0  0  0  0  0  0  0  0  0  0
   -5.6275   -1.2682    0.0000 C   0  0  0  0  0  0  0  0  0  0  0  0
   -5.5154    0.2276    0.0000 O   0  0  0  0  0  0  0  0  0  0  0  0
   -6.7548    1.0725    0.0000 C   0  0  0  0  0  0  0  0  0  0  0  0
   -6.6427    2.5684    0.0000 C   0  0  0  0  0  0  0  0  0  0  0  0
   -8.1062    0.4217    0.0000 C   0  0  0  0  0  0  0  0  0  0  0  0
   -8.2183   -1.0741    0.0000 C   0  0  0  0  0  0  0  0  0  0  0  0
   -6.9790   -1.9191    0.0000 C   0  0  0  0  0  0  0  0  0  0  0  0
   -7.0910   -3.4149    0.0000 O   0  0  0  0  0  0  0  0  0  0  0  0
   -8.4425   -4.0657    0.0000 C   0  0  0  0  0  0  0  0  0  0  0  0
   -9.4143   -3.5644    0.0000 O   0  0  0  0  0  0  0  0  0  0  0  0
   -8.5546   -5.5615    0.0000 C   0  0  0  0  0  0  0  0  0  0  0  0
   -9.9060   -6.2123    0.0000 C   0  0  0  0  0  0  0  0  0  0  0  0
   -9.5698   -1.7249    0.0000 N   0  0  0  0  0  0  0  0  0  0  0  0
  -10.8091   -0.8799    0.0000 C   0  0  0  0  0  0  0  0  0  0  0  0
   -9.7838   -2.7973    0.0000 C   0  0  0  0  0  0  0  0  0  0  0  0
   -3.3705    0.0000    0.0000 C   0  0  0  0  0  0  0  0  0  0  0  0
   -4.6098   -0.8450    0.0000 C   0  0  0  0  0  0  0  0  0  0  0  0
   -4.6098    0.8450    0.0000 O   0  0  0  0  0  0  0  0  0  0  0  0
   -3.0367    1.4624    0.0000 C   0  0  0  0  0  0  0  0  0  0  0  0
   -2.1015    2.6351    0.0000 C   0  0  0  0  0  0  0  0  0  0  0  0
   -3.0367    3.8079    0.0000 C   0  0  0  0  0  0  0  0  0  0  0  0
   -0.7500    3.2860    0.0000 C   0  0  0  0  0  0  0  0  0  0  0  0
   -1.0838    4.7484    0.0000 O   0  0  0  0  0  0  0  0  0  0  0  0
    0.7500    3.2860    0.0000 C   0  0  0  0  0  0  0  0  0  0  0  0
    1.0838    4.7484    0.0000 C   0  0  0  0  0  0  0  0  0  0  0  0
    2.1015    2.6351    0.0000 C   0  0  0  0  0  0  0  0  0  0  0  0
    3.0367    3.8079    0.0000 O   0  0  0  0  0  0  0  0  0  0  0  0
    3.0367    1.4624    0.0000 C   0  0  0  0  0  0  0  0  0  0  0  0
    3.7867    2.7614    0.0000 C   0  0  0  0  0  0  0  0  0  0  0  0
    4.5199    1.2388    0.0000 O   0  0  0  0  0  0  0  0  0  0  0  0
  1  2  1  0
  2  3  1  0
  3  4  1  0
  4  5  1  0
  5  6  1  0
  6  7  1  0
  7  8  1  0
  8  9  1  0
  9 10  1  0
 10 11  1  0
 11 12  1  0
 12 13  1  0
 13 14  1  0
 14 15  2  0
 14 16  2  0
 14 17  1  0
 18 19  1  0
 20 19  1  1
 20 21  1  0
 21 22  1  0
 22 23  2  0
 22 24  1  0
 24 25  1  6
 24 26  1  0
 26 27  1  1
 28 27  1  6
 28 29  1  0
 29 30  1  0
 30 31  1  1
 30 32  1  0
 32 33  1  0
 30 34  1  0
 34 35  1  6
 34 36  1  0
 36 37  1  1
 36 38  1  0
 26 39  1  0
 39 40  1  6
 39 41  1  0
 41 42  1  1
 43 42  1  1
 43 44  1  0
 44 45  1  0
 45 46  1  1
 45 47  1  0
 47 48  1  0
 48 49  1  0
 49 50  1  6
 50 51  1  0
 51 52  2  0
 51 53  1  0
 53 54  1  0
 48 55  1  1
 55 56  1  0
 55 57  1  0
 41 58  1  0
 58 59  1  1
 58 60  1  0
 58 61  1  0
 61 62  1  0
 62 63  1  1
 62 64  1  0
 64 65  2  0
 64 66  1  0
 66 67  1  6
 66 68  1  0
 68 69  1  1
 68 70  1  0
 70 71  1  1
 70 72  1  0
 70 20  1  0
 38 28  1  0
 49 43  1  0
M  END
$$$$
293438
     RDKit          2D

 35 35  0  0  0  0  0  0  0  0999 V2000
   16.0607   -7.7942    0.0000 C   0  0  0  0  0  0  0  0  0  0  0  0
   14.5607   -7.7942    0.0000 C   0  0  0  0  0  0  0  0  0  0  0  0
   13.8107   -6.4952    0.0000 C   0  0  0  0  0  0  0  0  0  0  0  0
   12.3107   -6.4952    0.0000 C   0  0  0  0  0  0  0  0  0  0  0  0
   11.5607   -5.1962    0.0000 C   0  0  0  0  0  0  0  0  0  0  0  0
   10.0607   -5.1962    0.0000 C   0  0  0  0  0  0  0  0  0  0  0  0
    9.3107   -3.8971    0.0000 C   0  0  0  0  0  0  0  0  0  0  0  0
    7.8107   -3.8971    0.0000 C   0  0  0  0  0  0  0  0  0  0  0  0
    7.0607   -2.5981    0.0000 C   0  0  0  0  0  0  0  0  0  0  0  0
    5.5607   -2.5981    0.0000 C   0  0  0  0  0  0  0  0  0  0  0  0
    4.8107   -1.2990    0.0000 C   0  0  0  0  0  0  0  0  0  0  0  0
    3.3107   -1.2990    0.0000 C   0  0  0  0  0  0  0  0  0  0  0  0
    2.5607    0.0000    0.0000 C   0  0  0  0  0  0  0  0  0  0  0  0
    1.0607    0.0000    0.0000 C   0  0  0  0  0  0  0  0  0  0  0  0
   -0.0000   -1.0607    0.0000 O   0  0  0  0  0  0  0  0  0  0  0  0
   -1.0607    0.0000    0.0000 C   0  0  0  0  0  0  0  0  0  0  0  0
   -2.5607    0.0000    0.0000 O   0  0  0  0  0  0  0  0  0  0  0  0
    0.0000    1.0607    0.0000 C   0  0  0  0  0  0  0  0  0  0  0  0
    0.0000    2.5607    0.0000 C   0  0  0  0  0  0  0  0  0  0  0  0
    1.2990    3.3107    0.0000 C   0  0  0  0  0  0  0  0  0  0  0  0
    1.2990    4.8107    0.0000 C   0  0  0  0  0  0  0  0  0  0  0  0
    2.5981    5.5607    0.0000 C   0  0  0  0  0  0  0  0  0  0  0  0
    2.5981    7.0607    0.0000 C   0  0  0  0  0  0  0  0  0  0  0  0
    3.8971    7.8107    0.0000 C   0  0  0  0  0  0  0  0  0  0  0  0
    2.5607   -2.5981    0.0000 O   0  0  0  0  0  0  0  0  0  0  0  0
    3.3107   -3.8971    0.0000 C   0  0  0  0  0  0  0  0  0  0  0  0
    4.8107   -3.8971    0.0000 O   0  0  0  0  0  0  0  0  0  0  0  0
    2.5607   -5.1962    0.0000 C   0  0  0  0  0  0  0  0  0  0  0  0
    3.3107   -6.4952    0.0000 C   0  0  0  0  0  0  0  0  0  0  0  0
    2.5607   -7.7942    0.0000 C   0  0  0  0  0  0  0  0  0  0  0  0
    3.3107   -9.0933    0.0000 C   0  0  0  0  0  0  0  0  0  0  0  0
    1.0607   -7.7942    0.0000 C   0  0  0  0  0  0  0  0  0  0  0  0
    1.0607   -5.1962    0.0000 N   0  0  0  0  0  0  0  0  0  0  0  0
    0.3107   -6.4952    0.0000 C   0  0  0  0  0  0  0  0  0  0  0  0
   -1.1893   -6.4952    0.0000 O   0  0  0  0  0  0  0  0  0  0  0  0
  1  2  1  0
  2  3  1  0
  3  4  1  0
  4  5  1  0
  5  6  1  0
  6  7  1  0
  7  8  1  0
  8  9  1  0
  9 10  1  0
 10 11  1  0
 12 11  1  6
 12 13  1  0
 14 13  1  6
 14 15  1  0
 15 16  1  0
 16 17  2  0
 16 18  1  0
 18 19  1  1
 19 20  1  0
 20 21  1  0
 21 22  1  0
 22 23  1  0
 23 24  1  0
 12 25  1  0
 25 26  1  0
 26 27  2  0
 26 28  1  0
 28 29  1  6
 29 30  1  0
 30 31  1  0
 30 32  1  0
 28 33  1  0
 33 34  1  0
 34 35  2  0
 18 14  1  0
M  END
$$$$
561520
     RDKit          2D

 46 49  0  0  0  0  0  0  0  0999 V2000
   -7.7942  -21.6073    0.0000 C   0  0  0  0  0  0  0  0  0  0  0  0
   -6.4952  -20.8573    0.0000 C   0  0  0  0  0  0  0  0  0  0  0  0
   -6.4952  -19.3573    0.0000 C   0  0  0  0  0  0  0  0  0  0  0  0
   -5.1962  -18.6073    0.0000 C   0  0  0  0  0  0  0  0  0  0  0  0
   -5.1962  -17.1073    0.0000 C   0  0  0  0  0  0  0  0  0  0  0  0
   -3.8971  -16.3573    0.0000 C   0  0  0  0  0  0  0  0  0  0  0  0
   -3.8971  -14.8573    0.0000 O   0  0  0  0  0  0  0  0  0  0  0  0
   -2.5981  -14.1073    0.0000 C   0  0  0  0  0  0  0  0  0  0  0  0
   -1.2990  -14.8573    0.0000 O   0  0  0  0  0  0  0  0  0  0  0  0
   -2.5981  -12.6073    0.0000 N   0  0  0  0  0  0  0  0  0  0  0  0
   -1.2990  -11.8573    0.0000 C   0  0  0  0  0  0  0  0  0  0  0  0
   -0.0000  -12.6073    0.0000 N   0  0  0  0  0  0  0  0  0  0  0  0
   -1.2990  -10.3573    0.0000 C   0  0  0  0  0  0  0  0  0  0  0  0
   -2.5981   -9.6073    0.0000 C   0  0  0  0  0  0  0  0  0  0  0  0
   -2.5981   -8.1073    0.0000 C   0  0  0  0  0  0  0  0  0  0  0  0
   -1.2990   -7.3573    0.0000 C   0  0  0  0  0  0  0  0  0  0  0  0
   -1.2990   -5.8573    0.0000 N   0  0  0  0  0  0  0  0  0  0  0  0
   -0.0000   -5.1073    0.0000 C   0  0  0  0  0  0  0  0  0  0  0  0
   -0.0000   -3.6073    0.0000 C   0  0  0  0  0  0  0  0  0  0  0  0
    1.2135   -2.7256    0.0000 N   0  0  0  0  0  0  0  0  0  0  0  0
    0.7500   -1.2990    0.0000 C   0  0  0  0  0  0  0  0  0  0  0  0
    1.5000    0.0000    0.0000 C   0  0  0  0  0  0  0  0  0  0  0  0
    0.7500    1.2990    0.0000 C   0  0  0  0  0  0  0  0  0  0  0  0
   -0.7500    1.2990    0.0000 C   0  0  0  0  0  0  0  0  0  0  0  0
   -1.5000    0.0000    0.0000 C   0  0  0  0  0  0  0  0  0  0  0  0
   -0.7500   -1.2990    0.0000 C   0  0  0  0  0  0  0  0  0  0  0  0
   -1.2135   -2.7256    0.0000 N   0  0  0  0  0  0  0  0  0  0  0  0
   -2.6401   -3.1891    0.0000 C   0  0  0  0  0  0  0  0  0  0  0  0
    1.5000    2.5981    0.0000 C   0  0  0  0  0  0  0  0  0  0  0  0
    0.7500    3.8971    0.0000 O   0  0  0  0  0  0  0  0  0  0  0  0
    3.0000    2.5981    0.0000 N   0  0  0  0  0  0  0  0  0  0  0  0
    3.7500    3.8971    0.0000 C   0  0  0  0  0  0  0  0  0  0  0  0
    5.2500    3.8971    0.0000 C   0  0  0  0  0  0  0  0  0  0  0  0
    6.0000    5.1962    0.0000 C   0  0  0  0  0  0  0  0  0  0  0  0
    5.2500    6.4952    0.0000 O   0  0  0  0  0  0  0  0  0  0  0  0
    7.5000    5.1962    0.0000 O   0  0  0  0  0  0  0  0  0  0  0  0
    8.2500    6.4952    0.0000 C   0  0  0  0  0  0  0  0  0  0  0  0
    9.7500    6.4952    0.0000 C   0  0  0  0  0  0  0  0  0  0  0  0
    3.7500    1.2990    0.0000 C   0  0  0  0  0  0  0  0  0  0  0  0
    3.0000   -0.0000    0.0000 C   0  0  0  0  0  0  0  0  0  0  0  0
    3.7500   -1.2990    0.0000 C   0  0  0  0  0  0  0  0  0  0  0  0
    5.2500   -1.2990    0.0000 C   0  0  0  0  0  0  0  0  0  0  0  0
    6.0000   -0.0000    0.0000 C   0  0  0  0  0  0  0  0  0  0  0  0
    5.2500    1.2990    0.0000 N   0  0  0  0  0  0  0  0  0  0  0  0
    0.0000   -8.1073    0.0000 C   0  0  0  0  0  0  0  0  0  0  0  0
    0.0000   -9.6073    0.0000 C   0  0  0  0  0  0  0  0  0  0  0  0
  1  2  1  0
  2  3  1  0
  3  4  1  0
  4  5  1  0
  5  6  1  0
  6  7  1  0
  7  8  1  0
  8  9  2  0
  8 10  1  0
 10 11  2  0
 11 12  1  0
 11 13  1  0
 13 14  2  0
 14 15  1  0
 15 16  2  0
 16 17  1  0
 17 18  1  0
 18 19  1  0
 19 20  2  0
 20 21  1  0
 21 22  2  0
 22 23  1  0
 23 24  2  0
 24 25  1  0
 25 26  2  0
 26 27  1  0
 27 28  1  0
 23 29  1  0
 29 30  2  0
 29 31  1  0
 31 32  1  0
 32 33  1  0
 33 34  1  0
 34 35  2  0
 34 36  1  0
 36 37  1  0
 37 38  1  0
 31 39  1  0
 39 40  2  0
 40 41  1  0
 41 42  2  0
 42 43  1  0
 43 44  2  0
 16 45  1  0
 45 46  2  0
 46 13  1  0
 27 19  1  0
 26 21  1  0
 44 39  1  0
M  END
$$$$
1038352
     RDKit          2D

 51 53  0  0  0  0  0  0  0  0999 V2000
   -7.7942  -21.6073    0.0000 C   0  0  0  0  0  0  0  0  0  0  0  0
   -6.4952  -20.8573    0.0000 C   0  0  0  0  0  0  0  0  0  0  0  0
   -6.4952  -19.3573    0.0000 C   0  0  0  0  0  0  0  0  0  0  0  0
   -5.1962  -18.6073    0.0000 C   0  0  0  0  0  0  0  0  0  0  0  0
   -5.1962  -17.1073    0.0000 C   0  0  0  0  0  0  0  0  0  0  0  0
   -3.8971  -16.3573    0.0000 C   0  0  0  0  0  0  0  0  0  0  0  0
   -3.8971  -14.8573    0.0000 O   0  0  0  0  0  0  0  0  0  0  0  0
   -2.5981  -14.1073    0.0000 C   0  0  0  0  0  0  0  0  0  0  0  0
   -1.2990  -14.8573    0.0000 O   0  0  0  0  0  0  0  0  0  0  0  0
   -2.5981  -12.6073    0.0000 N   0  0  0  0  0  0  0  0  0  0  0  0
   -1.2990  -11.8573    0.0000 C   0  0  0  0  0  0  0  0  0  0  0  0
   -0.0000  -12.6073    0.0000 N   0  0  0  0  0  0  0  0  0  0  0  0
   -1.2990  -10.3573    0.0000 C   0  0  0  0  0  0  0  0  0  0  0  0
   -2.5981   -9.6073    0.0000 C   0  0  0  0  0  0  0  0  0  0  0  0
   -2.5981   -8.1073    0.0000 C   0  0  0  0  0  0  0  0  0  0  0  0
   -1.2990   -7.3573    0.0000 C   0  0  0  0  0  0  0  0  0  0  0  0
   -1.2990   -5.8573    0.0000 N   0  0  0  0  0  0  0  0  0  0  0  0
   -0.0000   -5.1073    0.0000 C   0  0  0  0  0  0  0  0  0  0  0  0
   -0.0000   -3.6073    0.0000 C   0  0  0  0  0  0  0  0  0  0  0  0
    1.2135   -2.7256    0.0000 N   0  0  0  0  0  0  0  0  0  0  0  0
    0.7500   -1.2990    0.0000 C   0  0  0  0  0  0  0  0  0  0  0  0
    1.5000    0.0000    0.0000 C   0  0  0  0  0  0  0  0  0  0  0  0
    0.7500    1.2990    0.0000 C   0  0  0  0  0  0  0  0  0  0  0  0
   -0.7500    1.2990    0.0000 C   0  0  0  0  0  0  0  0  0  0  0  0
   -1.5000    0.0000    0.0000 C   0  0  0  0  0  0  0  0  0  0  0  0
   -0.7500   -1.2990    0.0000 C   0  0  0  0  0  0  0  0  0  0  0  0
   -1.2135   -2.7256    0.0000 N   0  0  0  0  0  0  0  0  0  0  0  0
   -2.6401   -3.1891    0.0000 C   0  0  0  0  0  0  0  0  0  0  0  0
    1.5000    2.5981    0.0000 C   0  0  0  0  0  0  0  0  0  0  0  0
    0.7500    3.8971    0.0000 O   0  0  0  0  0  0  0  0  0  0  0  0
    3.0000    2.5981    0.0000 N   0  0  0  0  0  0  0  0  0  0  0  0
    3.7500    3.8971    0.0000 C   0  0  0  0  0  0  0  0  0  0  0  0
    5.2500    3.8971    0.0000 C   0  0  0  0  0  0  0  0  0  0  0  0
    6.0000    5.1962    0.0000 C   0  0  0  0  0  0  0  0  0  0  0  0
    5.2500    6.4952    0.0000 O   0  0  0  0  0  0  0  0  0  0  0  0
    7.5000    5.1962    0.0000 O   0  0  0  0  0  0  0  0  0  0  0  0
    8.2500    6.4952    0.0000 C   0  0  0  0  0  0  0  0  0  0  0  0
    9.7500    6.4952    0.0000 C   0  0  0  0  0  0  0  0  0  0  0  0
    3.7500    1.2990    0.0000 C   0  0  0  0  0  0  0  0  0  0  0  0
    3.0000   -0.0000    0.0000 C   0  0  0  0  0  0  0  0  0  0  0  0
    3.7500   -1.2990    0.0000 C   0  0  0  0  0  0  0  0  0  0  0  0
    5.2500   -1.2990    0.0000 C   0  0  0  0  0  0  0  0  0  0  0  0
    6.0000   -0.0000    0.0000 C   0  0  0  0  0  0  0  0  0  0  0  0
    5.2500    1.2990    0.0000 N   0  0  0  0  0  0  0  0  0  0  0  0
    0.0000   -8.1073    0.0000 C   0  0  0  0  0  0  0  0  0  0  0  0
    0.0000   -9.6073    0.0000 C   0  0  0  0  0  0  0  0  0  0  0  0
   10.7500    0.0000    0.0000 C   0  0  0  0  0  0  0  0  0  0  0  0
   12.0490    0.7500    0.0000 S   0  0  0  0  0  0  0  0  0  0  0  0
   12.7990   -0.5490    0.0000 O   0  0  0  0  0  0  0  0  0  0  0  0
   11.2990    2.0490    0.0000 O   0  0  0  0  0  0  0  0  0  0  0  0
   13.3481    1.5000    0.0000 O   0  0  0  0  0  0  0  0  0  0  0  0
  1  2  1  0
  2  3  1  0
  3  4  1  0
  4  5  1  0
  5  6  1  0
  6  7  1  0
  7  8  1  0
  8  9  2  0
  8 10  1  0
 10 11  2  0
 11 12  1  0
 11 13  1  0
 13 14  2  0
 14 15  1  0
 15 16  2  0
 16 17  1  0
 17 18  1  0
 18 19  1  0
 19 20  2  0
 20 21  1  0
 21 22  2  0
 22 23  1  0
 23 24  2  0
 24 25  1  0
 25 26  2  0
 26 27  1  0
 27 28  1  0
 23 29  1  0
 29 30  2  0
 29 31  1  0
 31 32  1  0
 32 33  1  0
 33 34  1  0
 34 35  2  0
 34 36  1  0
 36 37  1  0
 37 38  1  0
 31 39  1  0
 39 40  2  0
 40 41  1  0
 41 42  2  0
 42 43  1  0
 43 44  2  0
 16 45  1  0
 45 46  2  0
 47 48  1  0
 48 49  2  0
 48 50  2  0
 48 51  1  0
 46 13  1  0
 27 19  1  0
 26 21  1  0
 44 39  1  0
M  END
$$$$
110435
     RDKit          2D

 19 18  0  0  0  0  0  0  0  0999 V2000
    0.0000    0.0000    0.0000 C   0  0  0  0  0  0  0  0  0  0  0  0
    1.2990    0.7500    0.0000 C   0  0  0  0  0  0  0  0  0  0  0  0
    2.5981   -0.0000    0.0000 C   0  0  0  0  0  0  0  0  0  0  0  0
    3.8971    0.7500    0.0000 C   0  0  0  0  0  0  0  0  0  0  0  0
    5.1962   -0.0000    0.0000 C   0  0  0  0  0  0  0  0  0  0  0  0
    6.4952    0.7500    0.0000 N   0  0  0  0  0  0  0  0  0  0  0  0
    7.7942   -0.0000    0.0000 C   0  0  0  0  0  0  0  0  0  0  0  0
    6.4952    2.2500    0.0000 C   0  0  0  0  0  0  0  0  0  0  0  0
    7.7942    3.0000    0.0000 C   0  0  0  0  0  0  0  0  0  0  0  0
    7.7942    4.5000    0.0000 C   0  0  0  0  0  0  0  0  0  0  0  0
    7.7942    6.0000    0.0000 O   0  0  0  0  0  0  0  0  0  0  0  0
    9.2942    4.5000    0.0000 P   0  0  0  0  0  0  0  0  0  0  0  0
   10.7942    4.5000    0.0000 O   0  0  0  0  0  0  0  0  0  0  0  0
    9.2942    6.0000    0.0000 O   0  0  0  0  0  0  0  0  0  0  0  0
    9.2942    3.0000    0.0000 O   0  0  0  0  0  0  0  0  0  0  0  0
    6.2942    4.5000    0.0000 P   0  0  0  0  0  0  0  0  0  0  0  0
    4.7942    4.5000    0.0000 O   0  0  0  0  0  0  0  0  0  0  0  0
    6.2942    6.0000    0.0000 O   0  0  0  0  0  0  0  0  0  0  0  0
    5.9313    3.0446    0.0000 O   0  0  0  0  0  0  0  0  0  0  0  0
  1  2  1  0
  2  3  1  0
  3  4  1  0
  4  5  1  0
  5  6  1  0
  6  7  1  0
  6  8  1  0
  8  9  1  0
  9 10  1  0
 10 11  1  0
 10 12  1  0
 12 13  2  0
 12 14  1  0
 12 15  1  0
 10 16  1  0
 16 17  2  0
 16 18  1  0
 16 19  1  0
M  END
$$$$
122247
     RDKit          2D

 22 23  0  0  0  0  0  0  0  0999 V2000
   -9.9058  -12.3794    0.0000 C   0  0  0  0  0  0  0  0  0  0  0  0
   -9.5939  -10.9121    0.0000 C   0  0  0  0  0  0  0  0  0  0  0  0
   -8.1673  -10.4486    0.0000 C   0  0  0  0  0  0  0  0  0  0  0  0
   -7.8555   -8.9814    0.0000 C   0  0  0  0  0  0  0  0  0  0  0  0
   -6.4289   -8.5179    0.0000 C   0  0  0  0  0  0  0  0  0  0  0  0
   -6.1170   -7.0506    0.0000 N   0  0  0  0  0  0  0  0  0  0  0  0
   -4.6904   -6.5871    0.0000 C   0  0  0  0  0  0  0  0  0  0  0  0
   -3.5757   -7.5908    0.0000 N   0  0  0  0  0  0  0  0  0  0  0  0
   -4.3786   -5.1199    0.0000 N   0  0  0  0  0  0  0  0  0  0  0  0
   -2.9520   -4.6564    0.0000 N   0  0  0  0  0  0  0  0  0  0  0  0
   -2.6401   -3.1891    0.0000 C   0  0  0  0  0  0  0  0  0  0  0  0
   -1.2135   -2.7256    0.0000 C   0  0  0  0  0  0  0  0  0  0  0  0
   -0.0000   -3.6073    0.0000 C   0  0  0  0  0  0  0  0  0  0  0  0
    1.2135   -2.7256    0.0000 N   0  0  0  0  0  0  0  0  0  0  0  0
    0.7500   -1.2990    0.0000 C   0  0  0  0  0  0  0  0  0  0  0  0
    1.5000    0.0000    0.0000 C   0  0  0  0  0  0  0  0  0  0  0  0
    0.7500    1.2990    0.0000 C   0  0  0  0  0  0  0  0  0  0  0  0
   -0.7500    1.2990    0.0000 C   0  0  0  0  0  0  0  0  0  0  0  0
   -1.5000    2.5981    0.0000 O   0  0  0  0  0  0  0  0  0  0  0  0
   -0.7500    3.8971    0.0000 C   0  0  0  0  0  0  0  0  0  0  0  0
   -1.5000    0.0000    0.0000 C   0  0  0  0  0  0  0  0  0  0  0  0
   -0.7500   -1.2990    0.0000 C   0  0  0  0  0  0  0  0  0  0  0  0
  1  2  1  0
  2  3  1  0
  3  4  1  0
  4  5  1  0
  5  6  1  0
  6  7  1  0
  7  8  2  0
  7  9  1  0
  9 10  1  0
 10 11  2  0
 11 12  1  0
 12 13  2  0
 13 14  1  0
 14 15  1  0
 15 16  2  0
 16 17  1  0
 17 18  2  0
 18 19  1  0
 19 20  1  0
 18 21  1  0
 21 22  2  0
 22 12  1  0
 22 15  1  0
M  END
$$$$
940358
     RDKit          2D

 30 30  0  0  0  0  0  0  0  0999 V2000
   -9.9058  -12.3794    0.0000 C   0  0  0  0  0  0  0  0  0  0  0  0
   -9.5939  -10.9121    0.0000 C   0  0  0  0  0  0  0  0  0  0  0  0
   -8.1673  -10.4486    0.0000 C   0  0  0  0  0  0  0  0  0  0  0  0
   -7.8555   -8.9814    0.0000 C   0  0  0  0  0  0  0  0  0  0  0  0
   -6.4289   -8.5179    0.0000 C   0  0  0  0  0  0  0  0  0  0  0  0
   -6.1170   -7.0506    0.0000 N   0  0  0  0  0  0  0  0  0  0  0  0
   -4.6904   -6.5871    0.0000 C   0  0  0  0  0  0  0  0  0  0  0  0
   -3.5757   -7.5908    0.0000 N   0  0  0  0  0  0  0  0  0  0  0  0
   -4.3786   -5.1199    0.0000 N   0  0  0  0  0  0  0  0  0  0  0  0
   -2.9520   -4.6564    0.0000 N   0  0  0  0  0  0  0  0  0  0  0  0
   -2.6401   -3.1891    0.0000 C   0  0  0  0  0  0  0  0  0  0  0  0
   -1.2135   -2.7256    0.0000 C   0  0  0  0  0  0  0  0  0  0  0  0
   -0.0000   -3.6073    0.0000 C   0  0  0  0  0  0  0  0  0  0  0  0
    1.2135   -2.7256    0.0000 N   0  0  0  0  0  0  0  0  0  0  0  0
    0.7500   -1.2990    0.0000 C   0  0  0  0  0  0  0  0  0  0  0  0
    1.5000    0.0000    0.0000 C   0  0  0  0  0  0  0  0  0  0  0  0
    0.7500    1.2990    0.0000 C   0  0  0  0  0  0  0  0  0  0  0  0
   -0.7500    1.2990    0.0000 C   0  0  0  0  0  0  0  0  0  0  0  0
   -1.5000    2.5981    0.0000 O   0  0  0  0  0  0  0  0  0  0  0  0
   -0.7500    3.8971    0.0000 C   0  0  0  0  0  0  0  0  0  0  0  0
   -1.5000    0.0000    0.0000 C   0  0  0  0  0  0  0  0  0  0  0  0
   -0.7500   -1.2990    0.0000 C   0  0  0  0  0  0  0  0  0  0  0  0
    2.5000   -1.2990    0.0000 O   0  0  0  0  0  0  0  0  0  0  0  0
    4.0000   -1.2990    0.0000 C   0  0  0  0  0  0  0  0  0  0  0  0
    4.7500   -2.5981    0.0000 O   0  0  0  0  0  0  0  0  0  0  0  0
    4.7500    0.0000    0.0000 C   0  0  0  0  0  0  0  0  0  0  0  0
    6.2500    0.0000    0.0000 C   0  0  0  0  0  0  0  0  0  0  0  0
    7.0000   -1.2990    0.0000 C   0  0  0  0  0  0  0  0  0  0  0  0
    6.2500   -2.5981    0.0000 O   0  0  0  0  0  0  0  0  0  0  0  0
    8.5000   -1.2990    0.0000 O   0  0  0  0  0  0  0  0  0  0  0  0
  1  2  1  0
  2  3  1  0
  3  4  1  0
  4  5  1  0
  5  6  1  0
  6  7  1  0
  7  8  2  0
  7  9  1  0
  9 10  1  0
 10 11  2  0
 11 12  1  0
 12 13  2  0
 13 14  1  0
 14 15  1  0
 15 16  2  0
 16 17  1  0
 17 18  2  0
 18 19  1  0
 19 20  1  0
 18 21  1  0
 21 22  2  0
 23 24  1  0
 24 25  2  0
 24 26  1  0
 26 27  2  0
 27 28  1  0
 28 29  2  0
 28 30  1  0
 22 12  1  0
 22 15  1  0
M  END
$$$$
598447
     RDKit          2D

 25 26  0  0  0  0  0  0  0  0999 V2000
   10.5000   -5.1962    0.0000 C   0  0  0  0  0  0  0  0  0  0  0  0
    9.7500   -3.8971    0.0000 C   0  0  0  0  0  0  0  0  0  0  0  0
    8.2500   -3.8971    0.0000 C   0  0  0  0  0  0  0  0  0  0  0  0
    7.5000   -2.5981    0.0000 C   0  0  0  0  0  0  0  0  0  0  0  0
    6.0000   -2.5981    0.0000 C   0  0  0  0  0  0  0  0  0  0  0  0
    5.2500   -1.2990    0.0000 O   0  0  0  0  0  0  0  0  0  0  0  0
    3.7500   -1.2990    0.0000 C   0  0  0  0  0  0  0  0  0  0  0  0
    3.0000   -2.5981    0.0000 O   0  0  0  0  0  0  0  0  0  0  0  0
    3.0000    0.0000    0.0000 N   0  0  0  0  0  0  0  0  0  0  0  0
    1.5000    0.0000    0.0000 C   0  0  0  0  0  0  0  0  0  0  0  0
    0.7500   -1.2990    0.0000 N   0  0  0  0  0  0  0  0  0  0  0  0
   -0.7500   -1.2990    0.0000 C   0  0  0  0  0  0  0  0  0  0  0  0
   -1.5000   -2.5981    0.0000 O   0  0  0  0  0  0  0  0  0  0  0  0
   -1.5000    0.0000    0.0000 N   0  0  0  0  0  0  0  0  0  0  0  0
   -0.7500    1.2990    0.0000 C   0  0  0  0  0  0  0  0  0  0  0  0
    0.7500    1.2990    0.0000 C   0  0  0  0  0  0  0  0  0  0  0  0
    1.5000    2.5981    0.0000 F   0  0  0  0  0  0  0  0  0  0  0  0
   -3.0000    0.0000    0.0000 C   0  0  0  0  0  0  0  0  0  0  0  0
   -3.8817   -1.2135    0.0000 O   0  0  0  0  0  0  0  0  0  0  0  0
   -5.3083   -0.7500    0.0000 C   0  0  0  0  0  0  0  0  0  0  0  0
   -6.5218   -1.6317    0.0000 C   0  0  0  0  0  0  0  0  0  0  0  0
   -5.3083    0.7500    0.0000 C   0  0  0  0  0  0  0  0  0  0  0  0
   -6.5218    1.6317    0.0000 O   0  0  0  0  0  0  0  0  0  0  0  0
   -3.8817    1.2135    0.0000 C   0  0  0  0  0  0  0  0  0  0  0  0
   -3.4182    2.6401    0.0000 O   0  0  0  0  0  0  0  0  0  0  0  0
  1  2  1  0
  2  3  1  0
  3  4  1  0
  4  5  1  0
  5  6  1  0
  6  7  1  0
  7  8  2  0
  7  9  1  0
  9 10  1  0
 10 11  2  0
 11 12  1  0
 12 13  2  0
 12 14  1  0
 14 15  1  0
 15 16  2  0
 16 17  1  0
 18 14  1  6
 18 19  1  0
 19 20  1  0
 20 21  1  6
 20 22  1  0
 22 23  1  1
 22 24  1  0
 24 25  1  1
 16 10  1  0
 24 18  1  0
M  END
$$$$
699470
     RDKit          2D

 28 30  0  0  0  0  0  0  0  0999 V2000
    8.1673  -13.0467    0.0000 C   0  0  0  0  0  0  0  0  0  0  0  0
    7.8555  -11.5795    0.0000 C   0  0  0  0  0  0  0  0  0  0  0  0
    6.4289  -11.1159    0.0000 C   0  0  0  0  0  0  0  0  0  0  0  0
    6.1170   -9.6487    0.0000 C   0  0  0  0  0  0  0  0  0  0  0  0
    4.6904   -9.1852    0.0000 C   0  0  0  0  0  0  0  0  0  0  0  0
    4.3786   -7.7180    0.0000 C   0  0  0  0  0  0  0  0  0  0  0  0
    5.4933   -6.7143    0.0000 O   0  0  0  0  0  0  0  0  0  0  0  0
    2.9520   -7.2544    0.0000 C   0  0  0  0  0  0  0  0  0  0  0  0
    2.6401   -5.7872    0.0000 C   0  0  0  0  0  0  0  0  0  0  0  0
    1.2135   -5.3237    0.0000 C   0  0  0  0  0  0  0  0  0  0  0  0
   -0.0000   -6.2054    0.0000 C   0  0  0  0  0  0  0  0  0  0  0  0
   -0.0000   -7.7054    0.0000 O   0  0  0  0  0  0  0  0  0  0  0  0
   -1.2135   -5.3237    0.0000 C   0  0  0  0  0  0  0  0  0  0  0  0
   -0.7500   -3.8971    0.0000 C   0  0  0  0  0  0  0  0  0  0  0  0
   -1.5000   -2.5981    0.0000 C   0  0  0  0  0  0  0  0  0  0  0  0
   -0.7500   -1.2990    0.0000 C   0  0  0  0  0  0  0  0  0  0  0  0
    0.7500   -1.2990    0.0000 C   0  0  0  0  0  0  0  0  0  0  0  0
    1.5000   -2.5981    0.0000 C   0  0  0  0  0  0  0  0  0  0  0  0
    0.7500   -3.8971    0.0000 C   0  0  0  0  0  0  0  0  0  0  0  0
    1.5000    0.0000    0.0000 C   0  0  0  0  0  0  0  0  0  0  0  0
    0.7500    1.2990    0.0000 C   0  0  0  0  0  0  0  0  0  0  0  0
   -0.7500    1.2990    0.0000 C   0  0  0  0  0  0  0  0  0  0  0  0
   -1.5000    0.0000    0.0000 C   0  0  0  0  0  0  0  0  0  0  0  0
   -3.0000    0.0000    0.0000 O   0  0  0  0  0  0  0  0  0  0  0  0
   -3.7500    1.2990    0.0000 C   0  0  0  0  0  0  0  0  0  0  0  0
   -5.2500    1.2990    0.0000 C   0  0  0  0  0  0  0  0  0  0  0  0
   -6.0000    0.0000    0.0000 O   0  0  0  0  0  0  0  0  0  0  0  0
   -6.0000    2.5981    0.0000 O   0  0  0  0  0  0  0  0  0  0  0  0
  1  2  1  0
  2  3  1  0
  3  4  1  0
  4  5  1  0
  5  6  1  0
  6  7  1  1
  6  8  1  0
  8  9  1  0
 10  9  1  1
 10 11  1  0
 11 12  1  6
 11 13  1  0
 14 13  1  6
 14 15  1  0
 15 16  1  0
 16 17  2  0
 17 18  1  0
 19 18  1  6
 17 20  1  0
 20 21  2  0
 21 22  1  0
 22 23  2  0
 23 24  1  0
 24 25  1  0
 25 26  1  0
 26 27  2  0
 26 28  1  0
 19 10  1  0
 19 14  1  0
 23 16  1  0
M  END
$$$$
1380085
     RDKit          2D

 35 36  0  0  0  0  0  0  0  0999 V2000
    8.1673  -13.0467    0.0000 C   0  0  0  0  0  0  0  0  0  0  0  0
    7.8555  -11.5795    0.0000 C   0  0  0  0  0  0  0  0  0  0  0  0
    6.4289  -11.1159    0.0000 C   0  0  0  0  0  0  0  0  0  0  0  0
    6.1170   -9.6487    0.0000 C   0  0  0  0  0  0  0  0  0  0  0  0
    4.6904   -9.1852    0.0000 C   0  0  0  0  0  0  0  0  0  0  0  0
    4.3786   -7.7180    0.0000 C   0  0  0  0  0  0  0  0  0  0  0  0
    5.4933   -6.7143    0.0000 O   0  0  0  0  0  0  0  0  0  0  0  0
    2.9520   -7.2544    0.0000 C   0  0  0  0  0  0  0  0  0  0  0  0
    2.6401   -5.7872    0.0000 C   0  0  0  0  0  0  0  0  0  0  0  0
    1.2135   -5.3237    0.0000 C   0  0  0  0  0  0  0  0  0  0  0  0
   -0.0000   -6.2054    0.0000 C   0  0  0  0  0  0  0  0  0  0  0  0
   -0.0000   -7.7054    0.0000 O   0  0  0  0  0  0  0  0  0  0  0  0
   -1.2135   -5.3237    0.0000 C   0  0  0  0  0  0  0  0  0  0  0  0
   -0.7500   -3.8971    0.0000 C   0  0  0  0  0  0  0  0  0  0  0  0
   -1.5000   -2.5981    0.0000 C   0  0  0  0  0  0  0  0  0  0  0  0
   -0.7500   -1.2990    0.0000 C   0  0  0  0  0  0  0  0  0  0  0  0
    0.7500   -1.2990    0.0000 C   0  0  0  0  0  0  0  0  0  0  0  0
    1.5000   -2.5981    0.0000 C   0  0  0  0  0  0  0  0  0  0  0  0
    0.7500   -3.8971    0.0000 C   0  0  0  0  0  0  0  0  0  0  0  0
    1.5000    0.0000    0.0000 C   0  0  0  0  0  0  0  0  0  0  0  0
    0.7500    1.2990    0.0000 C   0  0  0  0  0  0  0  0  0  0  0  0
   -0.7500    1.2990    0.0000 C   0  0  0  0  0  0  0  0  0  0  0  0
   -1.5000    0.0000    0.0000 C   0  0  0  0  0  0  0  0  0  0  0  0
   -3.0000    0.0000    0.0000 O   0  0  0  0  0  0  0  0  0  0  0  0
   -3.7500    1.2990    0.0000 C   0  0  0  0  0  0  0  0  0  0  0  0
   -5.2500    1.2990    0.0000 C   0  0  0  0  0  0  0  0  0  0  0  0
   -6.0000    0.0000    0.0000 O   0  0  0  0  0  0  0  0  0  0  0  0
   -6.0000    2.5981    0.0000 O   0  0  0  0  0  0  0  0  0  0  0  0
    9.1673    0.7500    0.0000 O   0  0  0  0  0  0  0  0  0  0  0  0
   10.4664    0.0000    0.0000 C   0  0  0  0  0  0  0  0  0  0  0  0
   11.7654    0.7500    0.0000 C   0  0  0  0  0  0  0  0  0  0  0  0
   13.0644   -0.0000    0.0000 N   0  0  0  0  0  0  0  0  0  0  0  0
   14.3635    0.7500    0.0000 C   0  0  0  0  0  0  0  0  0  0  0  0
   15.6625   -0.0000    0.0000 C   0  0  0  0  0  0  0  0  0  0  0  0
   16.9616    0.7500    0.0000 O   0  0  0  0  0  0  0  0  0  0  0  0
  1  2  1  0
  2  3  1  0
  3  4  1  0
  4  5  1  0
  5  6  1  0
  6  7  1  1
  6  8  1  0
  8  9  1  0
 10  9  1  1
 10 11  1  0
 11 12  1  6
 11 13  1  0
 14 13  1  6
 14 15  1  0
 15 16  1  0
 16 17  2  0
 17 18  1  0
 19 18  1  6
 17 20  1  0
 20 21  2  0
 21 22  1  0
 22 23  2  0
 23 24  1  0
 24 25  1  0
 25 26  1  0
 26 27  2  0
 26 28  1  0
 29 30  1  0
 30 31  1  0
 31 32  1  0
 32 33  1  0
 33 34  1  0
 34 35  1  0
 19 10  1  0
 19 14  1  0
 23 16  1  0
M  END
$$$$
1626758
     RDKit          2D

199190  0  0  0  0  0  0  0  0999 V2000
   -5.2500   -3.8971    0.0000 C   0  0  0  0  0  0  0  0  0  0  0  0
   -4.5000   -2.5981    0.0000 C   0  0  0  0  0  0  0  0  0  0  0  0
   -3.0000   -2.5981    0.0000 C   0  0  0  0  0  0  0  0  0  0  0  0
   -2.2500   -1.2990    0.0000 C   0  0  0  0  0  0  0  0  0  0  0  0
   -0.7500   -1.2990    0.0000 C   0  0  0  0  0  0  0  0  0  0  0  0
    0.0000    0.0000    0.0000 C   0  0  0  0  0  0  0  0  0  0  0  0
    1.5000    0.0000    0.0000 C   0  0  0  0  0  0  0  0  0  0  0  0
    2.2500   -1.2990    0.0000 C   0  0  0  0  0  0  0  0  0  0  0  0
    3.7500   -1.2990    0.0000 C   0  0  0  0  0  0  0  0  0  0  0  0
    4.5000   -2.5981    0.0000 C   0  0  0  0  0  0  0  0  0  0  0  0
    3.7500   -3.8971    0.0000 C   0  0  0  0  0  0  0  0  0  0  0  0
    4.5000   -5.1962    0.0000 C   0  0  0  0  0  0  0  0  0  0  0  0
    3.7500   -6.4952    0.0000 C   0  0  0  0  0  0  0  0  0  0  0  0
    4.5000   -7.7942    0.0000 C   0  0  0  0  0  0  0  0  0  0  0  0
    3.7500   -9.0933    0.0000 C   0  0  0  0  0  0  0  0  0  0  0  0
    4.5000  -10.3923    0.0000 C   0  0  0  0  0  0  0  0  0  0  0  0
    3.7500  -11.6913    0.0000 C   0  0  0  0  0  0  0  0  0  0  0  0
    4.5000  -12.9904    0.0000 C   0  0  0  0  0  0  0  0  0  0  0  0
    6.0000  -12.9904    0.0000 O   0  0  0  0  0  0  0  0  0  0  0  0
    3.7500  -14.2894    0.0000 O   0  0  0  0  0  0  0  0  0  0  0  0
    7.0000   -3.8971    0.0000 C   0  0  0  0  0  0  0  0  0  0  0  0
    7.7500   -2.5981    0.0000 C   0  0  0  0  0  0  0  0  0  0  0  0
    9.2500   -2.5981    0.0000 C   0  0  0  0  0  0  0  0  0  0  0  0
   10.0000   -1.2990    0.0000 C   0  0  0  0  0  0  0  0  0  0  0  0
   11.5000   -1.2990    0.0000 C   0  0  0  0  0  0  0  0  0  0  0  0
   12.2500    0.0000    0.0000 C   0  0  0  0  0  0  0  0  0  0  0  0
   13.7500    0.0000    0.0000 C   0  0  0  0  0  0  0  0  0  0  0  0
   14.5000   -1.2990    0.0000 C   0  0  0  0  0  0  0  0  0  0  0  0
   16.0000   -1.2990    0.0000 C   0  0  0  0  0  0  0  0  0  0  0  0
   16.7500   -2.5981    0.0000 C   0  0  0  0  0  0  0  0  0  0  0  0
   16.0000   -3.8971    0.0000 C   0  0  0  0  0  0  0  0  0  0  0  0
   16.7500   -5.1962    0.0000 C   0  0  0  0  0  0  0  0  0  0  0  0
   16.0000   -6.4952    0.0000 C   0  0  0  0  0  0  0  0  0  0  0  0
   14.5000   -6.4952    0.0000 C   0  0  0  0  0  0  0  0  0  0  0  0
   13.7500   -7.7942    0.0000 C   0  0  0  0  0  0  0  0  0  0  0  0
   12.2500   -7.7942    0.0000 C   0  0  0  0  0  0  0  0  0  0  0  0
   11.5000   -9.0933    0.0000 C   0  0  0  0  0  0  0  0  0  0  0  0
   10.0000   -9.0933    0.0000 C   0  0  0  0  0  0  0  0  0  0  0  0
    9.2500   -7.7942    0.0000 O   0  0  0  0  0  0  0  0  0  0  0  0
    9.2500  -10.3923    0.0000 O   0  0  0  0  0  0  0  0  0  0  0  0
   -5.2500    7.4952    0.0000 C   0  0  0  0  0  0  0  0  0  0  0  0
   -4.5000    8.7942    0.0000 C   0  0  0  0  0  0  0  0  0  0  0  0
   -3.0000    8.7942    0.0000 C   0  0  0  0  0  0  0  0  0  0  0  0
   -2.2500   10.0933    0.0000 C   0  0  0  0  0  0  0  0  0  0  0  0
   -0.7500   10.0933    0.0000 C   0  0  0  0  0  0  0  0  0  0  0  0
    0.0000   11.3923    0.0000 C   0  0  0  0  0  0  0  0  0  0  0  0
    1.5000   11.3923    0.0000 C   0  0  0  0  0  0  0  0  0  0  0  0
    2.2500   10.0933    0.0000 C   0  0  0  0  0  0  0  0  0  0  0  0
    3.7500   10.0933    0.0000 C   0  0  0  0  0  0  0  0  0  0  0  0
    4.5000    8.7942    0.0000 C   0  0  0  0  0  0  0  0  0  0  0  0
    3.7500    7.4952    0.0000 C   0  0  0  0  0  0  0  0  0  0  0  0
    4.5000    6.1962    0.0000 C   0  0  0  0  0  0  0  0  0  0  0  0
    3.7500    4.8971    0.0000 C   0  0  0  0  0  0  0  0  0  0  0  0
    2.2500    4.8971    0.0000 C   0  0  0  0  0  0  0  0  0  0  0  0
    1.5000    3.5981    0.0000 C   0  0  0  0  0  0  0  0  0  0  0  0
    2.2500    2.2990    0.0000 C   0  0  0  0  0  0  0  0  0  0  0  0
    3.7500    2.2990    0.0000 C   0  0  0  0  0  0  0  0  0  0  0  0
    4.5000    1.0000    0.0000 C   0  0  0  0  0  0  0  0  0  0  0  0
    6.0000    1.0000    0.0000 C   0  0  0  0  0  0  0  0  0  0  0  0
    6.7500    2.2990    0.0000 C   0  0  0  0  0  0  0  0  0  0  0  0
    8.2500    2.2990    0.0000 C   0  0  0  0  0  0  0  0  0  0  0  0
    9.0000    3.5981    0.0000 C   0  0  0  0  0  0  0  0  0  0  0  0
    8.2500    4.8971    0.0000 O   0  0  0  0  0  0  0  0  0  0  0  0
   10.5000    3.5981    0.0000 O   0  0  0  0  0  0  0  0  0  0  0  0
   22.2500   -1.2990    0.0000 C   0  0  0  0  0  0  0  0  0  0  0  0
   23.7500   -1.2990    0.0000 C   0  0  0  0  0  0  0  0  0  0  0  0
   24.5000    0.0000    0.0000 C   0  0  0  0  0  0  0  0  0  0  0  0
   26.0000    0.0000    0.0000 C   0  0  0  0  0  0  0  0  0  0  0  0
   26.7500   -1.2990    0.0000 C   0  0  0  0  0  0  0  0  0  0  0  0
   28.2500   -1.2990    0.0000 C   0  0  0  0  0  0  0  0  0  0  0  0
   29.0000   -2.5981    0.0000 C   0  0  0  0  0  0  0  0  0  0  0  0
   28.2500   -3.8971    0.0000 C   0  0  0  0  0  0  0  0  0  0  0  0
   29.0000   -5.1962    0.0000 C   0  0  0  0  0  0  0  0  0  0  0  0
   28.2500   -6.4952    0.0000 C   0  0  0  0  0  0  0  0  0  0  0  0
   26.7500   -6.4952    0.0000 C   0  0  0  0  0  0  0  0  0  0  0  0
   26.0000   -7.7942    0.0000 C   0  0  0  0  0  0  0  0  0  0  0  0
   24.5000   -7.7942    0.0000 C   0  0  0  0  0  0  0  0  0  0  0  0
   23.7500   -9.0933    0.0000 C   0  0  0  0  0  0  0  0  0  0  0  0
   22.2500   -9.0933    0.0000 C   0  0  0  0  0  0  0  0  0  0  0  0
   21.5000  -10.3923    0.0000 C   0  0  0  0  0  0  0  0  0  0  0  0
   20.0000  -10.3923    0.0000 C   0  0  0  0  0  0  0  0  0  0  0  0
   19.2500  -11.6913    0.0000 C   0  0  0  0  0  0  0  0  0  0  0  0
   20.0000  -12.9904    0.0000 O   0  0  0  0  0  0  0  0  0  0  0  0
   17.7500  -11.6913    0.0000 O   0  0  0  0  0  0  0  0  0  0  0  0
   -2.2500   25.3827    0.0000 C   0  0  0  0  0  0  0  0  0  0  0  0
   -0.7500   25.3827    0.0000 C   0  0  0  0  0  0  0  0  0  0  0  0
    0.0000   26.6817    0.0000 C   0  0  0  0  0  0  0  0  0  0  0  0
    1.5000   26.6817    0.0000 C   0  0  0  0  0  0  0  0  0  0  0  0
    2.2500   25.3827    0.0000 C   0  0  0  0  0  0  0  0  0  0  0  0
    3.7500   25.3827    0.0000 C   0  0  0  0  0  0  0  0  0  0  0  0
    4.5000   24.0836    0.0000 C   0  0  0  0  0  0  0  0  0  0  0  0
    3.7500   22.7846    0.0000 C   0  0  0  0  0  0  0  0  0  0  0  0
    4.5000   21.4856    0.0000 C   0  0  0  0  0  0  0  0  0  0  0  0
    3.7500   20.1865    0.0000 C   0  0  0  0  0  0  0  0  0  0  0  0
    2.2500   20.1865    0.0000 C   0  0  0  0  0  0  0  0  0  0  0  0
    1.5000   18.8875    0.0000 C   0  0  0  0  0  0  0  0  0  0  0  0
    2.2500   17.5885    0.0000 C   0  0  0  0  0  0  0  0  0  0  0  0
    3.7500   17.5885    0.0000 C   0  0  0  0  0  0  0  0  0  0  0  0
    4.5000   16.2894    0.0000 C   0  0  0  0  0  0  0  0  0  0  0  0
    6.0000   16.2894    0.0000 C   0  0  0  0  0  0  0  0  0  0  0  0
    6.7500   14.9904    0.0000 C   0  0  0  0  0  0  0  0  0  0  0  0
    8.2500   14.9904    0.0000 C   0  0  0  0  0  0  0  0  0  0  0  0
    9.0000   13.6913    0.0000 C   0  0  0  0  0  0  0  0  0  0  0  0
   10.5000   13.6913    0.0000 C   0  0  0  0  0  0  0  0  0  0  0  0
   11.2500   14.9904    0.0000 O   0  0  0  0  0  0  0  0  0  0  0  0
   11.2500   12.3923    0.0000 O   0  0  0  0  0  0  0  0  0  0  0  0
   32.2500   -1.2990    0.0000 C   0  0  0  0  0  0  0  0  0  0  0  0
   33.7500   -1.2990    0.0000 C   0  0  0  0  0  0  0  0  0  0  0  0
   34.5000    0.0000    0.0000 C   0  0  0  0  0  0  0  0  0  0  0  0
   36.0000    0.0000    0.0000 C   0  0  0  0  0  0  0  0  0  0  0  0
   36.7500   -1.2990    0.0000 C   0  0  0  0  0  0  0  0  0  0  0  0
   38.2500   -1.2990    0.0000 C   0  0  0  0  0  0  0  0  0  0  0  0
   39.0000   -2.5981    0.0000 C   0  0  0  0  0  0  0  0  0  0  0  0
   38.2500   -3.8971    0.0000 C   0  0  0  0  0  0  0  0  0  0  0  0
   39.0000   -5.1962    0.0000 C   0  0  0  0  0  0  0  0  0  0  0  0
   38.2500   -6.4952    0.0000 C   0  0  0  0  0  0  0  0  0  0  0  0
   36.7500   -6.4952    0.0000 C   0  0  0  0  0  0  0  0  0  0  0  0
   36.0000   -7.7942    0.0000 C   0  0  0  0  0  0  0  0  0  0  0  0
   36.7500   -9.0933    0.0000 C   0  0  0  0  0  0  0  0  0  0  0  0
   38.2500   -9.0933    0.0000 C   0  0  0  0  0  0  0  0  0  0  0  0
   39.0000  -10.3923    0.0000 C   0  0  0  0  0  0  0  0  0  0  0  0
   38.2500  -11.6913    0.0000 C   0  0  0  0  0  0  0  0  0  0  0  0
   36.7500  -11.6913    0.0000 C   0  0  0  0  0  0  0  0  0  0  0  0
   36.0000  -12.9904    0.0000 C   0  0  0  0  0  0  0  0  0  0  0  0
   34.5000  -12.9904    0.0000 C   0  0  0  0  0  0  0  0  0  0  0  0
   33.7500  -14.2894    0.0000 C   0  0  0  0  0  0  0  0  0  0  0  0
   32.2500  -14.2894    0.0000 C   0  0  0  0  0  0  0  0  0  0  0  0
   31.5000  -15.5885    0.0000 C   0  0  0  0  0  0  0  0  0  0  0  0
   32.2500  -16.8875    0.0000 O   0  0  0  0  0  0  0  0  0  0  0  0
   30.0000  -15.5885    0.0000 O   0  0  0  0  0  0  0  0  0  0  0  0
   -2.2500   41.9711    0.0000 C   0  0  0  0  0  0  0  0  0  0  0  0
   -0.7500   41.9711    0.0000 C   0  0  0  0  0  0  0  0  0  0  0  0
    0.0000   43.2702    0.0000 C   0  0  0  0  0  0  0  0  0  0  0  0
    1.5000   43.2702    0.0000 C   0  0  0  0  0  0  0  0  0  0  0  0
    2.2500   41.9711    0.0000 C   0  0  0  0  0  0  0  0  0  0  0  0
    3.7500   41.9711    0.0000 C   0  0  0  0  0  0  0  0  0  0  0  0
    4.5000   40.6721    0.0000 C   0  0  0  0  0  0  0  0  0  0  0  0
    3.7500   39.3731    0.0000 C   0  0  0  0  0  0  0  0  0  0  0  0
    4.5000   38.0740    0.0000 C   0  0  0  0  0  0  0  0  0  0  0  0
    3.7500   36.7750    0.0000 C   0  0  0  0  0  0  0  0  0  0  0  0
    2.2500   36.7750    0.0000 C   0  0  0  0  0  0  0  0  0  0  0  0
    1.5000   35.4760    0.0000 C   0  0  0  0  0  0  0  0  0  0  0  0
    2.2500   34.1769    0.0000 C   0  0  0  0  0  0  0  0  0  0  0  0
    3.7500   34.1769    0.0000 C   0  0  0  0  0  0  0  0  0  0  0  0
    4.5000   32.8779    0.0000 C   0  0  0  0  0  0  0  0  0  0  0  0
    3.7500   31.5788    0.0000 C   0  0  0  0  0  0  0  0  0  0  0  0
    2.2500   31.5788    0.0000 C   0  0  0  0  0  0  0  0  0  0  0  0
    1.5000   30.2798    0.0000 C   0  0  0  0  0  0  0  0  0  0  0  0
   -0.0000   30.2798    0.0000 C   0  0  0  0  0  0  0  0  0  0  0  0
   -0.7500   28.9808    0.0000 C   0  0  0  0  0  0  0  0  0  0  0  0
   -2.2500   28.9808    0.0000 C   0  0  0  0  0  0  0  0  0  0  0  0
   -3.0000   30.2798    0.0000 O   0  0  0  0  0  0  0  0  0  0  0  0
   -3.0000   27.6817    0.0000 O   0  0  0  0  0  0  0  0  0  0  0  0
   40.0000   -1.2990    0.0000 C   0  0  0  0  0  0  0  0  0  0  0  0
   41.5000   -1.2990    0.0000 C   0  0  0  0  0  0  0  0  0  0  0  0
   42.2500    0.0000    0.0000 C   0  0  0  0  0  0  0  0  0  0  0  0
   43.7500    0.0000    0.0000 C   0  0  0  0  0  0  0  0  0  0  0  0
   44.5000   -1.2990    0.0000 C   0  0  0  0  0  0  0  0  0  0  0  0
   46.0000   -1.2990    0.0000 C   0  0  0  0  0  0  0  0  0  0  0  0
   46.7500   -2.5981    0.0000 C   0  0  0  0  0  0  0  0  0  0  0  0
   46.0000   -3.8971    0.0000 C   0  0  0  0  0  0  0  0  0  0  0  0
   46.7500   -5.1962    0.0000 C   0  0  0  0  0  0  0  0  0  0  0  0
   46.0000   -6.4952    0.0000 C   0  0  0  0  0  0  0  0  0  0  0  0
   44.5000   -6.4952    0.0000 C   0  0  0  0  0  0  0  0  0  0  0  0
   43.7500   -7.7942    0.0000 C   0  0  0  0  0  0  0  0  0  0  0  0
   44.5000   -9.0933    0.0000 C   0  0  0  0  0  0  0  0  0  0  0  0
   46.0000   -9.0933    0.0000 C   0  0  0  0  0  0  0  0  0  0  0  0
   46.7500  -10.3923    0.0000 C   0  0  0  0  0  0  0  0  0  0  0  0
   46.0000  -11.6913    0.0000 C   0  0  0  0  0  0  0  0  0  0  0  0
   44.5000  -11.6913    0.0000 C   0  0  0  0  0  0  0  0  0  0  0  0
   43.7500  -12.9904    0.0000 C   0  0  0  0  0  0  0  0  0  0  0  0
   42.2500  -12.9904    0.0000 C   0  0  0  0  0  0  0  0  0  0  0  0
   41.5000  -14.2894    0.0000 C   0  0  0  0  0  0  0  0  0  0  0  0
   42.2500  -15.5885    0.0000 O   0  0  0  0  0  0  0  0  0  0  0  0
   40.0000  -14.2894    0.0000 O   0  0  0  0  0  0  0  0  0  0  0  0
   47.7500   -1.2990    0.0000 C   0  0  0  0  0  0  0  0  0  0  0  0
   49.2500   -1.2990    0.0000 C   0  0  0  0  0  0  0  0  0  0  0  0
   50.0000    0.0000    0.0000 C   0  0  0  0  0  0  0  0  0  0  0  0
   51.5000    0.0000    0.0000 C   0  0  0  0  0  0  0  0  0  0  0  0
   52.2500   -1.2990    0.0000 C   0  0  0  0  0  0  0  0  0  0  0  0
   53.7500   -1.2990    0.0000 C   0  0  0  0  0  0  0  0  0  0  0  0
   54.5000   -2.5981    0.0000 C   0  0  0  0  0  0  0  0  0  0  0  0
   53.7500   -3.8971    0.0000 C   0  0  0  0  0  0  0  0  0  0  0  0
   54.5000   -5.1962    0.0000 C   0  0  0  0  0  0  0  0  0  0  0  0
   53.7500   -6.4952    0.0000 C   0  0  0  0  0  0  0  0  0  0  0  0
   52.2500   -6.4952    0.0000 C   0  0  0  0  0  0  0  0  0  0  0  0
   51.5000   -7.7942    0.0000 C   0  0  0  0  0  0  0  0  0  0  0  0
   52.2500   -9.0933    0.0000 C   0  0  0  0  0  0  0  0  0  0  0  0
   53.7500   -9.0933    0.0000 C   0  0  0  0  0  0  0  0  0  0  0  0
   54.5000  -10.3923    0.0000 C   0  0  0  0  0  0  0  0  0  0  0  0
   53.7500  -11.6913    0.0000 C   0  0  0  0  0  0  0  0  0  0  0  0
   52.2500  -11.6913    0.0000 C   0  0  0  0  0  0  0  0  0  0  0  0
   51.5000  -12.9904    0.0000 C   0  0  0  0  0  0  0  0  0  0  0  0
   52.2500  -14.2894    0.0000 C   0  0  0  0  0  0  0  0  0  0  0  0
   53.7500  -14.2894    0.0000 C   0  0  0  0  0  0  0  0  0  0  0  0
   54.5000  -15.5885    0.0000 C   0  0  0  0  0  0  0  0  0  0  0  0
   56.0000  -15.5885    0.0000 C   0  0  0  0  0  0  0  0  0  0  0  0
   56.7500  -14.2894    0.0000 O   0  0  0  0  0  0  0  0  0  0  0  0
   56.7500  -16.8875    0.0000 O   0  0  0  0  0  0  0  0  0  0  0  0
  1  2  1  0
  2  3  1  0
  3  4  1  0
  4  5  1  0
  5  6  1  0
  6  7  2  0
  7  8  1  0
  8  9  1  0
  9 10  2  0
 10 11  1  0
 11 12  1  0
 12 13  1  0
 13 14  1  0
 14 15  1  0
 15 16  1  0
 16 17  1  0
 17 18  1  0
 18 19  2  0
 18 20  1  0
 21 22  1  0
 22 23  1  0
 23 24  1  0
 24 25  1  0
 25 26  1  0
 26 27  2  0
 27 28  1  0
 28 29  1  0
 29 30  2  0
 30 31  1  0
 31 32  1  0
 32 33  2  0
 33 34  1  0
 34 35  1  0
 35 36  1  0
 36 37  1  0
 37 38  1  0
 38 39  2  0
 38 40  1  0
 41 42  1  0
 42 43  1  0
 43 44  1  0
 44 45  1  0
 45 46  1  0
 46 47  2  0
 47 48  1  0
 48 49  1  0
 49 50  2  0
 50 51  1  0
 51 52  1  0
 52 53  2  0
 53 54  1  0
 54 55  1  0
 55 56  2  0
 56 57  1  0
 57 58  1  0
 58 59  2  0
 59 60  1  0
 60 61  1  0
 61 62  1  0
 62 63  2  0
 62 64  1  0
 65 66  1  0
 66 67  1  0
 67 68  2  0
 68 69  1  0
 69 70  1  0
 70 71  2  0
 71 72  1  0
 72 73  1  0
 73 74  2  0
 74 75  1  0
 75 76  1  0
 76 77  1  0
 77 78  1  0
 78 79  1  0
 79 80  1  0
 80 81  1  0
 81 82  1  0
 82 83  2  0
 82 84  1  0
 85 86  1  0
 86 87  1  0
 87 88  2  0
 88 89  1  0
 89 90  1  0
 90 91  2  0
 91 92  1  0
 92 93  1  0
 93 94  2  0
 94 95  1  0
 95 96  1  0
 96 97  2  0
 97 98  1  0
 98 99  1  0
 99100  1  0
100101  1  0
101102  1  0
102103  1  0
103104  1  0
104105  2  0
104106  1  0
107108  1  0
108109  1  0
109110  2  0
110111  1  0
111112  1  0
112113  2  0
113114  1  0
114115  1  0
115116  2  0
116117  1  0
117118  1  0
118119  2  0
119120  1  0
120121  1  0
121122  2  0
122123  1  0
123124  1  0
124125  1  0
125126  1  0
126127  1  0
127128  1  0
128129  2  0
128130  1  0
131132  1  0
132133  1  0
133134  2  0
134135  1  0
135136  1  0
136137  2  0
137138  1  0
138139  1  0
139140  2  0
140141  1  0
141142  1  0
142143  2  0
143144  1  0
144145  1  0
145146  2  0
146147  1  0
147148  1  0
148149  1  0
149150  1  0
150151  1  0
151152  2  0
151153  1  0
154155  1  0
155156  1  0
156157  2  0
157158  1  0
158159  1  0
159160  2  0
160161  1  0
161162  1  0
162163  2  0
163164  1  0
164165  1  0
165166  2  0
166167  1  0
167168  1  0
168169  2  0
169170  1  0
170171  1  0
171172  1  0
172173  1  0
173174  2  0
173175  1  0
176177  1  0
177178  1  0
178179  2  0
179180  1  0
180181  1  0
181182  2  0
182183  1  0
183184  1  0
184185  2  0
185186  1  0
186187  1  0
187188  2  0
188189  1  0
189190  1  0
190191  2  0
191192  1  0
192193  1  0
193194  2  0
194195  1  0
195196  1  0
196197  1  0
197198  2  0
197199  1  0
M  END
$$$$
252768
     RDKit          2D

 35 38  0  0  0  0  0  0  0  0999 V2000
  -11.5489   -1.6393    0.0000 C   0  0  0  0  0  0  0  0  0  0  0  0
  -10.3354   -2.5210    0.0000 C   0  0  0  0  0  0  0  0  0  0  0  0
   -8.9651   -1.9109    0.0000 C   0  0  0  0  0  0  0  0  0  0  0  0
   -7.7515   -2.7926    0.0000 C   0  0  0  0  0  0  0  0  0  0  0  0
   -6.3812   -2.1825    0.0000 N   0  0  0  0  0  0  0  0  0  0  0  0
   -6.2244   -0.6907    0.0000 C   0  0  0  0  0  0  0  0  0  0  0  0
   -7.4379    0.1910    0.0000 C   0  0  0  0  0  0  0  0  0  0  0  0
   -7.2812    1.6828    0.0000 C   0  0  0  0  0  0  0  0  0  0  0  0
   -8.4947    2.5644    0.0000 C   0  0  0  0  0  0  0  0  0  0  0  0
   -5.1677   -3.0642    0.0000 C   0  0  0  0  0  0  0  0  0  0  0  0
   -3.7974   -2.4540    0.0000 C   0  0  0  0  0  0  0  0  0  0  0  0
   -3.6406   -0.9623    0.0000 O   0  0  0  0  0  0  0  0  0  0  0  0
   -2.5838   -3.3357    0.0000 C   0  0  0  0  0  0  0  0  0  0  0  0
   -2.7406   -4.8275    0.0000 C   0  0  0  0  0  0  0  0  0  0  0  0
   -1.5271   -5.7092    0.0000 C   0  0  0  0  0  0  0  0  0  0  0  0
   -1.6839   -7.2010    0.0000 Cl  0  0  0  0  0  0  0  0  0  0  0  0
   -0.1568   -5.0991    0.0000 C   0  0  0  0  0  0  0  0  0  0  0  0
   -0.0000   -3.6073    0.0000 C   0  0  0  0  0  0  0  0  0  0  0  0
    1.2135   -2.7256    0.0000 C   0  0  0  0  0  0  0  0  0  0  0  0
    2.6401   -3.1891    0.0000 C   0  0  0  0  0  0  0  0  0  0  0  0
    3.7548   -2.1855    0.0000 C   0  0  0  0  0  0  0  0  0  0  0  0
    5.1814   -2.6490    0.0000 C   0  0  0  0  0  0  0  0  0  0  0  0
    6.2961   -1.6453    0.0000 C   0  0  0  0  0  0  0  0  0  0  0  0
    5.9843   -0.1781    0.0000 C   0  0  0  0  0  0  0  0  0  0  0  0
    7.0990    0.8256    0.0000 Cl  0  0  0  0  0  0  0  0  0  0  0  0
    4.5577    0.2855    0.0000 C   0  0  0  0  0  0  0  0  0  0  0  0
    3.4430   -0.7182    0.0000 C   0  0  0  0  0  0  0  0  0  0  0  0
    0.7500   -1.2990    0.0000 C   0  0  0  0  0  0  0  0  0  0  0  0
    1.5000    0.0000    0.0000 C   0  0  0  0  0  0  0  0  0  0  0  0
    0.7500    1.2990    0.0000 C   0  0  0  0  0  0  0  0  0  0  0  0
    1.5000    2.5981    0.0000 Cl  0  0  0  0  0  0  0  0  0  0  0  0
   -0.7500    1.2990    0.0000 C   0  0  0  0  0  0  0  0  0  0  0  0
   -1.5000    0.0000    0.0000 C   0  0  0  0  0  0  0  0  0  0  0  0
   -0.7500   -1.2990    0.0000 C   0  0  0  0  0  0  0  0  0  0  0  0
   -1.2135   -2.7256    0.0000 C   0  0  0  0  0  0  0  0  0  0  0  0
  1  2  1  0
  2  3  1  0
  3  4  1  0
  4  5  1  0
  5  6  1  0
  6  7  1  0
  7  8  1  0
  8  9  1  0
  5 10  1  0
 10 11  1  0
 11 12  1  0
 11 13  1  0
 13 14  2  0
 14 15  1  0
 15 16  1  0
 15 17  2  0
 17 18  1  0
 18 19  1  0
 19 20  2  0
 20 21  1  0
 21 22  2  0
 22 23  1  0
 23 24  2  0
 24 25  1  0
 24 26  1  0
 26 27  2  0
 19 28  1  0
 28 29  2  0
 29 30  1  0
 30 31  1  0
 30 32  2  0
 32 33  1  0
 33 34  2  0
 34 35  1  0
 35 13  1  0
 35 18  2  0
 27 21  1  0
 34 28  1  0
M  END
$$$$
152728
     RDKit          2D

 33 35  0  0  0  0  0  0  0  0999 V2000
  -10.5000   -7.7942    0.0000 C   0  0  0  0  0  0  0  0  0  0  0  0
   -9.7500   -6.4952    0.0000 C   0  0  0  0  0  0  0  0  0  0  0  0
   -8.2500   -6.4952    0.0000 C   0  0  0  0  0  0  0  0  0  0  0  0
   -7.5000   -5.1962    0.0000 C   0  0  0  0  0  0  0  0  0  0  0  0
   -6.0000   -5.1962    0.0000 N   0  0  0  0  0  0  0  0  0  0  0  0
   -5.2500   -6.4952    0.0000 C   0  0  0  0  0  0  0  0  0  0  0  0
   -6.0000   -7.7942    0.0000 C   0  0  0  0  0  0  0  0  0  0  0  0
   -5.2500   -9.0933    0.0000 C   0  0  0  0  0  0  0  0  0  0  0  0
   -6.0000  -10.3923    0.0000 C   0  0  0  0  0  0  0  0  0  0  0  0
   -5.2500   -3.8971    0.0000 C   0  0  0  0  0  0  0  0  0  0  0  0
   -3.7500   -3.8971    0.0000 C   0  0  0  0  0  0  0  0  0  0  0  0
   -3.0000   -2.5981    0.0000 C   0  0  0  0  0  0  0  0  0  0  0  0
   -3.7500   -1.2990    0.0000 O   0  0  0  0  0  0  0  0  0  0  0  0
   -1.5000   -2.5981    0.0000 C   0  0  0  0  0  0  0  0  0  0  0  0
   -0.7500   -3.8971    0.0000 C   0  0  0  0  0  0  0  0  0  0  0  0
    0.7500   -3.8971    0.0000 C   0  0  0  0  0  0  0  0  0  0  0  0
    1.5000   -5.1962    0.0000 C   0  0  0  0  0  0  0  0  0  0  0  0
    0.7500   -6.4952    0.0000 Cl  0  0  0  0  0  0  0  0  0  0  0  0
    3.0000   -5.1962    0.0000 C   0  0  0  0  0  0  0  0  0  0  0  0
    3.7500   -3.8971    0.0000 C   0  0  0  0  0  0  0  0  0  0  0  0
    5.2500   -3.8971    0.0000 Cl  0  0  0  0  0  0  0  0  0  0  0  0
    3.0000   -2.5981    0.0000 C   0  0  0  0  0  0  0  0  0  0  0  0
    1.5000   -2.5981    0.0000 C   0  0  0  0  0  0  0  0  0  0  0  0
    0.7500   -1.2990    0.0000 C   0  0  0  0  0  0  0  0  0  0  0  0
    1.5000    0.0000    0.0000 C   0  0  0  0  0  0  0  0  0  0  0  0
    0.7500    1.2990    0.0000 C   0  0  0  0  0  0  0  0  0  0  0  0
   -0.7500    1.2990    0.0000 C   0  0  0  0  0  0  0  0  0  0  0  0
   -1.5000    0.0000    0.0000 C   0  0  0  0  0  0  0  0  0  0  0  0
   -0.7500   -1.2990    0.0000 C   0  0  0  0  0  0  0  0  0  0  0  0
    1.5000    2.5981    0.0000 C   0  0  0  0  0  0  0  0  0  0  0  0
    2.2500    3.8971    0.0000 F   0  0  0  0  0  0  0  0  0  0  0  0
    2.7990    1.8481    0.0000 F   0  0  0  0  0  0  0  0  0  0  0  0
    0.2010    3.3481    0.0000 F   0  0  0  0  0  0  0  0  0  0  0  0
  1  2  1  0
  2  3  1  0
  3  4  1  0
  4  5  1  0
  5  6  1  0
  6  7  1  0
  7  8  1  0
  8  9  1  0
  5 10  1  0
 10 11  1  0
 11 12  1  0
 12 13  1  0
 12 14  1  0
 14 15  2  0
 15 16  1  0
 16 17  2  0
 17 18  1  0
 17 19  1  0
 19 20  2  0
 20 21  1  0
 20 22  1  0
 22 23  2  0
 23 24  1  0
 24 25  2  0
 25 26  1  0
 26 27  2  0
 27 28  1  0
 28 29  2  0
 26 30  1  0
 30 31  1  0
 30 32  1  0
 30 33  1  0
 29 14  1  0
 23 16  1  0
 29 24  1  0
M  END
$$$$
308422
     RDKit          2D

 39 41  0  0  0  0  0  0  0  0999 V2000
  -10.8414  -16.7810    0.0000 C   0  0  0  0  0  0  0  0  0  0  0  0
  -10.5295  -15.3138    0.0000 C   0  0  0  0  0  0  0  0  0  0  0  0
   -9.1029  -14.8503    0.0000 C   0  0  0  0  0  0  0  0  0  0  0  0
   -8.7911  -13.3831    0.0000 C   0  0  0  0  0  0  0  0  0  0  0  0
   -7.3645  -12.9195    0.0000 N   0  0  0  0  0  0  0  0  0  0  0  0
   -6.2498  -13.9232    0.0000 C   0  0  0  0  0  0  0  0  0  0  0  0
   -6.5616  -15.3904    0.0000 C   0  0  0  0  0  0  0  0  0  0  0  0
   -5.4469  -16.3941    0.0000 C   0  0  0  0  0  0  0  0  0  0  0  0
   -5.7588  -17.8614    0.0000 C   0  0  0  0  0  0  0  0  0  0  0  0
   -7.0526  -11.4523    0.0000 C   0  0  0  0  0  0  0  0  0  0  0  0
   -5.6260  -10.9888    0.0000 C   0  0  0  0  0  0  0  0  0  0  0  0
   -5.3142   -9.5216    0.0000 C   0  0  0  0  0  0  0  0  0  0  0  0
   -3.8876   -9.0580    0.0000 O   0  0  0  0  0  0  0  0  0  0  0  0
   -3.5757   -7.5908    0.0000 C   0  0  0  0  0  0  0  0  0  0  0  0
   -4.6904   -6.5871    0.0000 C   0  0  0  0  0  0  0  0  0  0  0  0
   -4.3786   -5.1199    0.0000 C   0  0  0  0  0  0  0  0  0  0  0  0
   -2.9520   -4.6564    0.0000 C   0  0  0  0  0  0  0  0  0  0  0  0
   -1.8373   -5.6601    0.0000 C   0  0  0  0  0  0  0  0  0  0  0  0
   -2.1491   -7.1273    0.0000 C   0  0  0  0  0  0  0  0  0  0  0  0
   -2.6401   -3.1891    0.0000 C   0  0  0  0  0  0  0  0  0  0  0  0
   -3.7548   -2.1855    0.0000 O   0  0  0  0  0  0  0  0  0  0  0  0
   -1.2135   -2.7256    0.0000 C   0  0  0  0  0  0  0  0  0  0  0  0
   -0.0000   -3.6073    0.0000 C   0  0  0  0  0  0  0  0  0  0  0  0
    0.0000   -5.1073    0.0000 C   0  0  0  0  0  0  0  0  0  0  0  0
    1.2990   -5.8573    0.0000 C   0  0  0  0  0  0  0  0  0  0  0  0
    1.2990   -7.3573    0.0000 C   0  0  0  0  0  0  0  0  0  0  0  0
    2.5981   -8.1073    0.0000 C   0  0  0  0  0  0  0  0  0  0  0  0
    1.2135   -2.7256    0.0000 O   0  0  0  0  0  0  0  0  0  0  0  0
    0.7500   -1.2990    0.0000 C   0  0  0  0  0  0  0  0  0  0  0  0
    1.5000    0.0000    0.0000 C   0  0  0  0  0  0  0  0  0  0  0  0
    0.7500    1.2990    0.0000 C   0  0  0  0  0  0  0  0  0  0  0  0
   -0.7500    1.2990    0.0000 C   0  0  0  0  0  0  0  0  0  0  0  0
   -1.5000    2.5981    0.0000 N   0  0  0  0  0  0  0  0  0  0  0  0
   -0.7500    3.8971    0.0000 S   0  0  0  0  0  0  0  0  0  0  0  0
    0.5490    3.1471    0.0000 O   0  0  0  0  0  0  0  0  0  0  0  0
   -2.0490    4.6471    0.0000 O   0  0  0  0  0  0  0  0  0  0  0  0
    0.0000    5.1962    0.0000 C   0  0  0  0  0  0  0  0  0  0  0  0
   -1.5000    0.0000    0.0000 C   0  0  0  0  0  0  0  0  0  0  0  0
   -0.7500   -1.2990    0.0000 C   0  0  0  0  0  0  0  0  0  0  0  0
  1  2  1  0
  2  3  1  0
  3  4  1  0
  4  5  1  0
  5  6  1  0
  6  7  1  0
  7  8  1  0
  8  9  1  0
  5 10  1  0
 10 11  1  0
 11 12  1  0
 12 13  1  0
 13 14  1  0
 14 15  2  0
 15 16  1  0
 16 17  2  0
 17 18  1  0
 18 19  2  0
 17 20  1  0
 20 21  2  0
 20 22  1  0
 22 23  2  0
 23 24  1  0
 24 25  1  0
 25 26  1  0
 26 27  1  0
 23 28  1  0
 28 29  1  0
 29 30  2  0
 30 31  1  0
 31 32  2  0
 32 33  1  0
 33 34  1  0
 34 35  2  0
 34 36  2  0
 34 37  1  0
 32 38  1  0
 38 39  2  0
 19 14  1  0
 39 22  1  0
 39 29  1  0
M  END
$$$$
122901
     RDKit          2D

 15 15  0  0  0  0  0  0  0  0999 V2000
    6.0000   -2.5981    0.0000 C   0  0  0  0  0  0  0  0  0  0  0  0
    5.2500   -1.2990    0.0000 C   0  0  0  0  0  0  0  0  0  0  0  0
    3.7500   -1.2990    0.0000 C   0  0  0  0  0  0  0  0  0  0  0  0
    3.0000    0.0000    0.0000 C   0  0  0  0  0  0  0  0  0  0  0  0
    1.5000    0.0000    0.0000 N   0  0  0  0  0  0  0  0  0  0  0  0
    0.7500   -1.2990    0.0000 C   0  0  0  0  0  0  0  0  0  0  0  0
   -0.7500   -1.2990    0.0000 C   0  0  0  0  0  0  0  0  0  0  0  0
   -1.5000   -2.5981    0.0000 O   0  0  0  0  0  0  0  0  0  0  0  0
   -1.5000    0.0000    0.0000 C   0  0  0  0  0  0  0  0  0  0  0  0
   -3.0000    0.0000    0.0000 O   0  0  0  0  0  0  0  0  0  0  0  0
   -0.7500    1.2990    0.0000 C   0  0  0  0  0  0  0  0  0  0  0  0
   -1.5000    2.5981    0.0000 O   0  0  0  0  0  0  0  0  0  0  0  0
    0.7500    1.2990    0.0000 C   0  0  0  0  0  0  0  0  0  0  0  0
    1.5000    2.5981    0.0000 C   0  0  0  0  0  0  0  0  0  0  0  0
    3.0000    2.5981    0.0000 O   0  0  0  0  0  0  0  0  0  0  0  0
  1  2  1  0
  2  3  1  0
  3  4  1  0
  4  5  1  0
  5  6  1  0
  6  7  1  0
  7  8  1  6
  7  9  1  0
  9 10  1  1
  9 11  1  0
 11 12  1  6
 11 13  1  0
 13 14  1  1
 14 15  1  0
 13  5  1  0
M  END
$$$$
46726
     RDKit          2D

 18 18  0  0  0  0  0  0  0  0999 V2000
   11.2500    3.8971    0.0000 C   0  0  0  0  0  0  0  0  0  0  0  0
    9.7500    3.8971    0.0000 C   0  0  0  0  0  0  0  0  0  0  0  0
    9.0000    2.5981    0.0000 C   0  0  0  0  0  0  0  0  0  0  0  0
    7.5000    2.5981    0.0000 C   0  0  0  0  0  0  0  0  0  0  0  0
    6.7500    1.2990    0.0000 N   0  0  0  0  0  0  0  0  0  0  0  0
    5.2500    1.2990    0.0000 C   0  0  0  0  0  0  0  0  0  0  0  0
    4.5000    2.5981    0.0000 O   0  0  0  0  0  0  0  0  0  0  0  0
    4.5000    0.0000    0.0000 N   0  0  0  0  0  0  0  0  0  0  0  0
    3.0000    0.0000    0.0000 S   0  0  0  0  0  0  0  0  0  0  0  0
    3.0000   -1.5000    0.0000 O   0  0  0  0  0  0  0  0  0  0  0  0
    3.0000    1.5000    0.0000 O   0  0  0  0  0  0  0  0  0  0  0  0
    1.5000    0.0000    0.0000 C   0  0  0  0  0  0  0  0  0  0  0  0
    0.7500   -1.2990    0.0000 C   0  0  0  0  0  0  0  0  0  0  0  0
   -0.7500   -1.2990    0.0000 C   0  0  0  0  0  0  0  0  0  0  0  0
   -1.5000    0.0000    0.0000 C   0  0  0  0  0  0  0  0  0  0  0  0
   -3.0000    0.0000    0.0000 C   0  0  0  0  0  0  0  0  0  0  0  0
   -0.7500    1.2990    0.0000 C   0  0  0  0  0  0  0  0  0  0  0  0
    0.7500    1.2990    0.0000 C   0  0  0  0  0  0  0  0  0  0  0  0
  1  2  1  0
  2  3  1  0
  3  4  1  0
  4  5  1  0
  5  6  1  0
  6  7  2  0
  6  8  1  0
  8  9  1  0
  9 10  2  0
  9 11  2  0
  9 12  1  0
 12 13  2  0
 13 14  1  0
 14 15  2  0
 15 16  1  0
 15 17  1  0
 17 18  2  0
 18 12  1  0
M  END
$$$$
139281
     RDKit          2D

 25 26  0  0  0  0  0  0  0  0999 V2000
    7.5000   -2.5981    0.0000 C   0  0  0  0  0  0  0  0  0  0  0  0
    6.0000   -2.5981    0.0000 C   0  0  0  0  0  0  0  0  0  0  0  0
    5.2500   -1.2990    0.0000 C   0  0  0  0  0  0  0  0  0  0  0  0
    3.7500   -1.2990    0.0000 C   0  0  0  0  0  0  0  0  0  0  0  0
    3.0000    0.0000    0.0000 N   0  0  0  0  0  0  0  0  0  0  0  0
    1.5000    0.0000    0.0000 C   0  0  0  0  0  0  0  0  0  0  0  0
    0.7500   -1.2990    0.0000 C   0  0  0  0  0  0  0  0  0  0  0  0
   -0.7500   -1.2990    0.0000 C   0  0  0  0  0  0  0  0  0  0  0  0
   -1.5000    0.0000    0.0000 C   0  0  0  0  0  0  0  0  0  0  0  0
   -0.7500    1.2990    0.0000 C   0  0  0  0  0  0  0  0  0  0  0  0
    0.7500    1.2990    0.0000 C   0  0  0  0  0  0  0  0  0  0  0  0
    1.5000    2.5981    0.0000 O   0  0  0  0  0  0  0  0  0  0  0  0
    3.0000    2.5981    0.0000 C   0  0  0  0  0  0  0  0  0  0  0  0
    3.7500    3.8971    0.0000 C   0  0  0  0  0  0  0  0  0  0  0  0
    5.2500    3.8971    0.0000 C   0  0  0  0  0  0  0  0  0  0  0  0
    6.0000    2.5981    0.0000 C   0  0  0  0  0  0  0  0  0  0  0  0
    5.2500    1.2990    0.0000 C   0  0  0  0  0  0  0  0  0  0  0  0
    3.7500    1.2990    0.0000 C   0  0  0  0  0  0  0  0  0  0  0  0
   -1.5000    2.5981    0.0000 S   0  0  0  0  0  0  0  0  0  0  0  0
   -0.2010    3.3481    0.0000 O   0  0  0  0  0  0  0  0  0  0  0  0
   -2.7990    1.8481    0.0000 O   0  0  0  0  0  0  0  0  0  0  0  0
   -2.2500    3.8971    0.0000 N   0  0  0  0  0  0  0  0  0  0  0  0
   -1.5000   -2.5981    0.0000 C   0  0  0  0  0  0  0  0  0  0  0  0
   -0.7500   -3.8971    0.0000 O   0  0  0  0  0  0  0  0  0  0  0  0
   -3.0000   -2.5981    0.0000 O   0  0  0  0  0  0  0  0  0  0  0  0
  1  2  1  0
  2  3  1  0
  3  4  1  0
  4  5  1  0
  5  6  1  0
  6  7  2  0
  7  8  1  0
  8  9  2  0
  9 10  1  0
 10 11  2  0
 11 12  1  0
 12 13  1  0
 13 14  2  0
 14 15  1  0
 15 16  2  0
 16 17  1  0
 17 18  2  0
 10 19  1  0
 19 20  2  0
 19 21  2  0
 19 22  1  0
  8 23  1  0
 23 24  2  0
 23 25  1  0
 11  6  1  0
 18 13  1  0
M  END
$$$$
798263
     RDKit          2D

 42 42  0  0  0  0  0  0  0  0999 V2000
    7.5000   -2.5981    0.0000 C   0  0  0  0  0  0  0  0  0  0  0  0
    6.0000   -2.5981    0.0000 C   0  0  0  0  0  0  0  0  0  0  0  0
    5.2500   -1.2990    0.0000 C   0  0  0  0  0  0  0  0  0  0  0  0
    3.7500   -1.2990    0.0000 C   0  0  0  0  0  0  0  0  0  0  0  0
    3.0000    0.0000    0.0000 N   0  0  0  0  0  0  0  0  0  0  0  0
    1.5000    0.0000    0.0000 C   0  0  0  0  0  0  0  0  0  0  0  0
    0.7500   -1.2990    0.0000 C   0  0  0  0  0  0  0  0  0  0  0  0
   -0.7500   -1.2990    0.0000 C   0  0  0  0  0  0  0  0  0  0  0  0
   -1.5000    0.0000    0.0000 C   0  0  0  0  0  0  0  0  0  0  0  0
   -0.7500    1.2990    0.0000 C   0  0  0  0  0  0  0  0  0  0  0  0
    0.7500    1.2990    0.0000 C   0  0  0  0  0  0  0  0  0  0  0  0
   -3.0000    0.0000    0.0000 C   0  0  0  0  0  0  0  0  0  0  0  0
   -3.7500   -1.2990    0.0000 O   0  0  0  0  0  0  0  0  0  0  0  0
   -3.7500    1.2990    0.0000 O   0  0  0  0  0  0  0  0  0  0  0  0
   -5.2500    1.2990    0.0000 C   0  0  0  0  0  0  0  0  0  0  0  0
   -6.0000    2.5981    0.0000 C   0  0  0  0  0  0  0  0  0  0  0  0
   -7.5000    2.5981    0.0000 O   0  0  0  0  0  0  0  0  0  0  0  0
   -8.2500    3.8971    0.0000 C   0  0  0  0  0  0  0  0  0  0  0  0
   -9.7500    3.8971    0.0000 C   0  0  0  0  0  0  0  0  0  0  0  0
  -10.5000    5.1962    0.0000 O   0  0  0  0  0  0  0  0  0  0  0  0
  -12.0000    5.1962    0.0000 C   0  0  0  0  0  0  0  0  0  0  0  0
  -12.7500    6.4952    0.0000 C   0  0  0  0  0  0  0  0  0  0  0  0
  -14.2500    6.4952    0.0000 O   0  0  0  0  0  0  0  0  0  0  0  0
  -15.0000    7.7942    0.0000 C   0  0  0  0  0  0  0  0  0  0  0  0
  -16.5000    7.7942    0.0000 C   0  0  0  0  0  0  0  0  0  0  0  0
  -17.2500    9.0933    0.0000 O   0  0  0  0  0  0  0  0  0  0  0  0
  -18.7500    9.0933    0.0000 C   0  0  0  0  0  0  0  0  0  0  0  0
  -19.5000   10.3923    0.0000 C   0  0  0  0  0  0  0  0  0  0  0  0
  -21.0000   10.3923    0.0000 O   0  0  0  0  0  0  0  0  0  0  0  0
  -21.7500   11.6913    0.0000 C   0  0  0  0  0  0  0  0  0  0  0  0
  -23.2500   11.6913    0.0000 C   0  0  0  0  0  0  0  0  0  0  0  0
  -24.0000   12.9904    0.0000 O   0  0  0  0  0  0  0  0  0  0  0  0
  -25.5000   12.9904    0.0000 C   0  0  0  0  0  0  0  0  0  0  0  0
  -26.2500   14.2894    0.0000 C   0  0  0  0  0  0  0  0  0  0  0  0
  -27.7500   14.2894    0.0000 O   0  0  0  0  0  0  0  0  0  0  0  0
  -28.5000   15.5885    0.0000 C   0  0  0  0  0  0  0  0  0  0  0  0
  -30.0000   15.5885    0.0000 C   0  0  0  0  0  0  0  0  0  0  0  0
  -30.7500   16.8875    0.0000 O   0  0  0  0  0  0  0  0  0  0  0  0
  -32.2500   16.8875    0.0000 C   0  0  0  0  0  0  0  0  0  0  0  0
  -33.0000   18.1865    0.0000 C   0  0  0  0  0  0  0  0  0  0  0  0
  -34.5000   18.1865    0.0000 O   0  0  0  0  0  0  0  0  0  0  0  0
  -35.2500   19.4856    0.0000 C   0  0  0  0  0  0  0  0  0  0  0  0
  1  2  1  0
  2  3  1  0
  3  4  1  0
  4  5  1  0
  5  6  1  0
  6  7  2  0
  7  8  1  0
  8  9  2  0
  9 10  1  0
 10 11  2  0
  9 12  1  0
 12 13  2  0
 12 14  1  0
 14 15  1  0
 15 16  1  0
 16 17  1  0
 17 18  1  0
 18 19  1  0
 19 20  1  0
 20 21  1  0
 21 22  1  0
 22 23  1  0
 23 24  1  0
 24 25  1  0
 25 26  1  0
 26 27  1  0
 27 28  1  0
 28 29  1  0
 29 30  1  0
 30 31  1  0
 31 32  1  0
 32 33  1  0
 33 34  1  0
 34 35  1  0
 35 36  1  0
 36 37  1  0
 37 38  1  0
 38 39  1  0
 39 40  1  0
 40 41  1  0
 41 42  1  0
 11  6  1  0
M  END
$$$$
19316
     RDKit          2D

 19 20  0  0  0  0  0  0  0  0999 V2000
    8.2500   -3.8971    0.0000 C   0  0  0  0  0  0  0  0  0  0  0  0
    7.5000   -2.5981    0.0000 C   0  0  0  0  0  0  0  0  0  0  0  0
    6.0000   -2.5981    0.0000 C   0  0  0  0  0  0  0  0  0  0  0  0
    5.2500   -1.2990    0.0000 N   0  0  0  0  0  0  0  0  0  0  0  0
    6.0000    0.0000    0.0000 C   0  0  0  0  0  0  0  0  0  0  0  0
    7.5000   -0.0000    0.0000 C   0  0  0  0  0  0  0  0  0  0  0  0
    8.2500    1.2990    0.0000 C   0  0  0  0  0  0  0  0  0  0  0  0
    3.7500   -1.2990    0.0000 C   0  0  0  0  0  0  0  0  0  0  0  0
    3.0000    0.0000    0.0000 C   0  0  0  0  0  0  0  0  0  0  0  0
    1.5000    0.0000    0.0000 C   0  0  0  0  0  0  0  0  0  0  0  0
    0.7500   -1.2990    0.0000 C   0  0  0  0  0  0  0  0  0  0  0  0
   -0.7500   -1.2990    0.0000 C   0  0  0  0  0  0  0  0  0  0  0  0
   -1.5000    0.0000    0.0000 C   0  0  0  0  0  0  0  0  0  0  0  0
   -0.7500    1.2990    0.0000 C   0  0  0  0  0  0  0  0  0  0  0  0
   -1.2135    2.7256    0.0000 N   0  0  0  0  0  0  0  0  0  0  0  0
   -0.0000    3.6073    0.0000 C   0  0  0  0  0  0  0  0  0  0  0  0
   -0.0000    5.1073    0.0000 O   0  0  0  0  0  0  0  0  0  0  0  0
    1.2135    2.7256    0.0000 C   0  0  0  0  0  0  0  0  0  0  0  0
    0.7500    1.2990    0.0000 C   0  0  0  0  0  0  0  0  0  0  0  0
  1  2  1  0
  2  3  1  0
  3  4  1  0
  4  5  1  0
  5  6  1  0
  6  7  1  0
  4  8  1  0
  8  9  1  0
  9 10  1  0
 10 11  2  0
 11 12  1  0
 12 13  2  0
 13 14  1  0
 14 15  1  0
 15 16  1  0
 16 17  2  0
 16 18  1  0
 18 19  1  0
 19 10  1  0
 19 14  2  0
M  END
$$$$
77474
     RDKit          2D

 19 19  0  0  0  0  0  0  0  0999 V2000
    7.5000    2.5981    0.0000 C   0  0  0  0  0  0  0  0  0  0  0  0
    6.7500    1.2990    0.0000 C   0  0  0  0  0  0  0  0  0  0  0  0
    5.2500    1.2990    0.0000 C   0  0  0  0  0  0  0  0  0  0  0  0
    4.5000    0.0000    0.0000 N   0  0  0  0  0  0  0  0  0  0  0  0
    5.2500   -1.2990    0.0000 C   0  0  0  0  0  0  0  0  0  0  0  0
    6.7500   -1.2990    0.0000 C   0  0  0  0  0  0  0  0  0  0  0  0
    7.5000   -2.5981    0.0000 C   0  0  0  0  0  0  0  0  0  0  0  0
    3.0000    0.0000    0.0000 S   0  0  0  0  0  0  0  0  0  0  0  0
    3.0000   -1.5000    0.0000 O   0  0  0  0  0  0  0  0  0  0  0  0
    3.0000    1.5000    0.0000 O   0  0  0  0  0  0  0  0  0  0  0  0
    1.5000    0.0000    0.0000 C   0  0  0  0  0  0  0  0  0  0  0  0
    0.7500   -1.2990    0.0000 C   0  0  0  0  0  0  0  0  0  0  0  0
   -0.7500   -1.2990    0.0000 C   0  0  0  0  0  0  0  0  0  0  0  0
   -1.5000    0.0000    0.0000 C   0  0  0  0  0  0  0  0  0  0  0  0
   -0.7500    1.2990    0.0000 C   0  0  0  0  0  0  0  0  0  0  0  0
    0.7500    1.2990    0.0000 C   0  0  0  0  0  0  0  0  0  0  0  0
   -3.0000    0.0000    0.0000 C   0  0  0  0  0  0  0  0  0  0  0  0
   -3.7500   -1.2990    0.0000 O   0  0  0  0  0  0  0  0  0  0  0  0
   -3.7500    1.2990    0.0000 O   0  0  0  0  0  0  0  0  0  0  0  0
  1  2  1  0
  2  3  1  0
  3  4  1  0
  4  5  1  0
  5  6  1  0
  6  7  1  0
  4  8  1  0
  8  9  2  0
  8 10  2  0
  8 11  1  0
 11 12  2  0
 12 13  1  0
 13 14  2  0
 14 15  1  0
 15 16  2  0
 14 17  1  0
 17 18  2  0
 17 19  1  0
 16 11  1  0
M  END
$$$$
12494
     RDKit          2D

 22 25  0  0  0  0  0  0  0  0999 V2000
   -8.2500   -3.8971    0.0000 C   0  0  0  0  0  0  0  0  0  0  0  0
   -7.5000   -2.5981    0.0000 C   0  0  0  0  0  0  0  0  0  0  0  0
   -6.0000   -2.5981    0.0000 C   0  0  0  0  0  0  0  0  0  0  0  0
   -5.2500   -1.2990    0.0000 N   0  0  0  0  0  0  0  0  0  0  0  0
   -6.0000    0.0000    0.0000 C   0  0  0  0  0  0  0  0  0  0  0  0
   -5.2500    1.2990    0.0000 C   0  0  0  0  0  0  0  0  0  0  0  0
   -6.0000    2.5981    0.0000 C   0  0  0  0  0  0  0  0  0  0  0  0
   -5.2500    3.8971    0.0000 S   0  0  0  0  0  0  0  0  0  0  0  0
   -6.0000    5.1962    0.0000 C   0  0  0  0  0  0  0  0  0  0  0  0
   -3.7500    1.2990    0.0000 C   0  0  0  0  0  0  0  0  0  0  0  0
   -3.0000    0.0000    0.0000 C   0  0  0  0  0  0  0  0  0  0  0  0
   -3.7500   -1.2990    0.0000 C   0  0  0  0  0  0  0  0  0  0  0  0
   -3.0000   -2.5981    0.0000 C   0  0  0  0  0  0  0  0  0  0  0  0
   -1.5000   -2.5981    0.0000 C   0  0  0  0  0  0  0  0  0  0  0  0
   -0.3853   -3.6018    0.0000 C   0  0  0  0  0  0  0  0  0  0  0  0
    0.9138   -2.8518    0.0000 N   0  0  0  0  0  0  0  0  0  0  0  0
    0.7500   -1.2990    0.0000 C   0  0  0  0  0  0  0  0  0  0  0  0
    1.5000    0.0000    0.0000 C   0  0  0  0  0  0  0  0  0  0  0  0
    0.7500    1.2990    0.0000 C   0  0  0  0  0  0  0  0  0  0  0  0
   -0.7500    1.2990    0.0000 C   0  0  0  0  0  0  0  0  0  0  0  0
   -1.5000    0.0000    0.0000 C   0  0  0  0  0  0  0  0  0  0  0  0
   -0.7500   -1.2990    0.0000 C   0  0  0  0  0  0  0  0  0  0  0  0
  1  2  1  0
  2  3  1  0
  3  4  1  0
  4  5  1  0
  5  6  1  0
  6  7  1  6
  7  8  1  0
  8  9  1  0
  6 10  1  0
 11 10  1  6
 11 12  1  0
 12 13  1  1
 13 14  1  0
 14 15  2  0
 15 16  1  0
 16 17  1  0
 17 18  2  0
 18 19  1  0
 19 20  2  0
 20 21  1  0
 21 22  2  0
 12  4  1  0
 21 11  1  0
 22 14  1  0
 22 17  1  0
M  END
$$$$
249814
     RDKit          2D

 27 29  0  0  0  0  0  0  0  0999 V2000
   -8.2500   -3.8971    0.0000 C   0  0  0  0  0  0  0  0  0  0  0  0
   -7.5000   -2.5981    0.0000 C   0  0  0  0  0  0  0  0  0  0  0  0
   -6.0000   -2.5981    0.0000 C   0  0  0  0  0  0  0  0  0  0  0  0
   -5.2500   -1.2990    0.0000 N   0  0  0  0  0  0  0  0  0  0  0  0
   -6.0000    0.0000    0.0000 C   0  0  0  0  0  0  0  0  0  0  0  0
   -5.2500    1.2990    0.0000 C   0  0  0  0  0  0  0  0  0  0  0  0
   -6.0000    2.5981    0.0000 C   0  0  0  0  0  0  0  0  0  0  0  0
   -5.2500    3.8971    0.0000 S   0  0  0  0  0  0  0  0  0  0  0  0
   -6.0000    5.1962    0.0000 C   0  0  0  0  0  0  0  0  0  0  0  0
   -3.7500    1.2990    0.0000 C   0  0  0  0  0  0  0  0  0  0  0  0
   -3.0000    0.0000    0.0000 C   0  0  0  0  0  0  0  0  0  0  0  0
   -3.7500   -1.2990    0.0000 C   0  0  0  0  0  0  0  0  0  0  0  0
   -3.0000   -2.5981    0.0000 C   0  0  0  0  0  0  0  0  0  0  0  0
   -1.5000   -2.5981    0.0000 C   0  0  0  0  0  0  0  0  0  0  0  0
   -0.3853   -3.6018    0.0000 C   0  0  0  0  0  0  0  0  0  0  0  0
    0.9138   -2.8518    0.0000 N   0  0  0  0  0  0  0  0  0  0  0  0
    0.7500   -1.2990    0.0000 C   0  0  0  0  0  0  0  0  0  0  0  0
    1.5000    0.0000    0.0000 C   0  0  0  0  0  0  0  0  0  0  0  0
    0.7500    1.2990    0.0000 C   0  0  0  0  0  0  0  0  0  0  0  0
   -0.7500    1.2990    0.0000 C   0  0  0  0  0  0  0  0  0  0  0  0
   -1.5000    0.0000    0.0000 C   0  0  0  0  0  0  0  0  0  0  0  0
   -0.7500   -1.2990    0.0000 C   0  0  0  0  0  0  0  0  0  0  0  0
    0.0000    6.7452    0.0000 C   0  0  0  0  0  0  0  0  0  0  0  0
    1.2990    7.4952    0.0000 S   0  0  0  0  0  0  0  0  0  0  0  0
    2.0490    6.1962    0.0000 O   0  0  0  0  0  0  0  0  0  0  0  0
    0.5490    8.7942    0.0000 O   0  0  0  0  0  0  0  0  0  0  0  0
    2.5981    8.2452    0.0000 O   0  0  0  0  0  0  0  0  0  0  0  0
  1  2  1  0
  2  3  1  0
  3  4  1  0
  4  5  1  0
  5  6  1  0
  6  7  1  6
  7  8  1  0
  8  9  1  0
  6 10  1  0
 11 10  1  6
 11 12  1  0
 12 13  1  1
 13 14  1  0
 14 15  2  0
 15 16  1  0
 16 17  1  0
 17 18  2  0
 18 19  1  0
 19 20  2  0
 20 21  1  0
 21 22  2  0
 23 24  1  0
 24 25  2  0
 24 26  2  0
 24 27  1  0
 12  4  1  0
 21 11  1  0
 22 14  1  0
 22 17  1  0
M  END
$$$$
8516
     RDKit          2D

 17 17  0  0  0  0  0  0  0  0999 V2000
    9.7500    3.8971    0.0000 C   0  0  0  0  0  0  0  0  0  0  0  0
    9.0000    2.5981    0.0000 C   0  0  0  0  0  0  0  0  0  0  0  0
    7.5000    2.5981    0.0000 C   0  0  0  0  0  0  0  0  0  0  0  0
    6.7500    1.2990    0.0000 N   0  0  0  0  0  0  0  0  0  0  0  0
    5.2500    1.2990    0.0000 C   0  0  0  0  0  0  0  0  0  0  0  0
    4.5000    2.5981    0.0000 O   0  0  0  0  0  0  0  0  0  0  0  0
    4.5000    0.0000    0.0000 N   0  0  0  0  0  0  0  0  0  0  0  0
    3.0000    0.0000    0.0000 S   0  0  0  0  0  0  0  0  0  0  0  0
    3.0000   -1.5000    0.0000 O   0  0  0  0  0  0  0  0  0  0  0  0
    3.0000    1.5000    0.0000 O   0  0  0  0  0  0  0  0  0  0  0  0
    1.5000    0.0000    0.0000 C   0  0  0  0  0  0  0  0  0  0  0  0
    0.7500   -1.2990    0.0000 C   0  0  0  0  0  0  0  0  0  0  0  0
   -0.7500   -1.2990    0.0000 C   0  0  0  0  0  0  0  0  0  0  0  0
   -1.5000    0.0000    0.0000 C   0  0  0  0  0  0  0  0  0  0  0  0
   -3.0000    0.0000    0.0000 Cl  0  0  0  0  0  0  0  0  0  0  0  0
   -0.7500    1.2990    0.0000 C   0  0  0  0  0  0  0  0  0  0  0  0
    0.7500    1.2990    0.0000 C   0  0  0  0  0  0  0  0  0  0  0  0
  1  2  1  0
  2  3  1  0
  3  4  1  0
  4  5  1  0
  5  6  2  0
  5  7  1  0
  7  8  1  0
  8  9  2  0
  8 10  2  0
  8 11  1  0
 11 12  2  0
 12 13  1  0
 13 14  2  0
 14 15  1  0
 14 16  1  0
 16 17  2  0
 17 11  1  0
M  END
$$$$
27112
     RDKit          2D

 25 26  0  0  0  0  0  0  0  0999 V2000
   10.5000   -5.1962    0.0000 C   0  0  0  0  0  0  0  0  0  0  0  0
    9.7500   -3.8971    0.0000 C   0  0  0  0  0  0  0  0  0  0  0  0
    8.2500   -3.8971    0.0000 C   0  0  0  0  0  0  0  0  0  0  0  0
    7.5000   -2.5981    0.0000 N   0  0  0  0  0  0  0  0  0  0  0  0
    6.0000   -2.5981    0.0000 C   0  0  0  0  0  0  0  0  0  0  0  0
    5.2500   -1.2990    0.0000 C   0  0  0  0  0  0  0  0  0  0  0  0
    6.0000    0.0000    0.0000 O   0  0  0  0  0  0  0  0  0  0  0  0
    3.7500   -1.2990    0.0000 C   0  0  0  0  0  0  0  0  0  0  0  0
    3.0000    0.0000    0.0000 O   0  0  0  0  0  0  0  0  0  0  0  0
    1.5000    0.0000    0.0000 C   0  0  0  0  0  0  0  0  0  0  0  0
    0.7500   -1.2990    0.0000 C   0  0  0  0  0  0  0  0  0  0  0  0
   -0.7500   -1.2990    0.0000 C   0  0  0  0  0  0  0  0  0  0  0  0
   -1.5000    0.0000    0.0000 C   0  0  0  0  0  0  0  0  0  0  0  0
   -0.7500    1.2990    0.0000 C   0  0  0  0  0  0  0  0  0  0  0  0
    0.7500    1.2990    0.0000 C   0  0  0  0  0  0  0  0  0  0  0  0
    1.5000    2.5981    0.0000 C   0  0  0  0  0  0  0  0  0  0  0  0
    0.7500    3.8971    0.0000 O   0  0  0  0  0  0  0  0  0  0  0  0
    3.0000    2.5981    0.0000 C   0  0  0  0  0  0  0  0  0  0  0  0
    3.7500    3.8971    0.0000 C   0  0  0  0  0  0  0  0  0  0  0  0
    5.2500    3.8971    0.0000 C   0  0  0  0  0  0  0  0  0  0  0  0
    6.0000    2.5981    0.0000 C   0  0  0  0  0  0  0  0  0  0  0  0
    7.5000    2.5981    0.0000 C   0  0  0  0  0  0  0  0  0  0  0  0
    8.2500    3.8971    0.0000 C   0  0  0  0  0  0  0  0  0  0  0  0
    7.5000    5.1962    0.0000 C   0  0  0  0  0  0  0  0  0  0  0  0
    6.0000    5.1962    0.0000 C   0  0  0  0  0  0  0  0  0  0  0  0
  1  2  1  0
  2  3  1  0
  3  4  1  0
  4  5  1  0
  5  6  1  0
  6  7  1  0
  6  8  1  0
  8  9  1  0
  9 10  1  0
 10 11  2  0
 11 12  1  0
 12 13  2  0
 13 14  1  0
 14 15  2  0
 15 16  1  0
 16 17  2  0
 16 18  1  0
 18 19  1  0
 19 20  1  0
 20 21  2  0
 21 22  1  0
 22 23  2  0
 23 24  1  0
 24 25  2  0
 15 10  1  0
 25 20  1  0
M  END
$$$$
1376143
     RDKit          2D

 32 34  0  0  0  0  0  0  0  0999 V2000
    3.7500   -6.4952    0.0000 C   0  0  0  0  0  0  0  0  0  0  0  0
    4.5000   -5.1962    0.0000 C   0  0  0  0  0  0  0  0  0  0  0  0
    3.7500   -3.8971    0.0000 C   0  0  0  0  0  0  0  0  0  0  0  0
    4.5000   -2.5981    0.0000 N   0  0  0  0  0  0  0  0  0  0  0  0
    3.7500   -1.2990    0.0000 S   0  0  0  0  0  0  0  0  0  0  0  0
    2.4510   -2.0490    0.0000 O   0  0  0  0  0  0  0  0  0  0  0  0
    5.0490   -0.5490    0.0000 O   0  0  0  0  0  0  0  0  0  0  0  0
    3.0000    0.0000    0.0000 N   0  0  0  0  0  0  0  0  0  0  0  0
    1.5000    0.0000    0.0000 C   0  0  0  0  0  0  0  0  0  0  0  0
    0.7500   -1.2990    0.0000 N   0  0  0  0  0  0  0  0  0  0  0  0
   -0.7500   -1.2990    0.0000 C   0  0  0  0  0  0  0  0  0  0  0  0
   -1.5000    0.0000    0.0000 N   0  0  0  0  0  0  0  0  0  0  0  0
   -0.7500    1.2990    0.0000 C   0  0  0  0  0  0  0  0  0  0  0  0
   -1.5000    2.5981    0.0000 O   0  0  0  0  0  0  0  0  0  0  0  0
   -3.0000    2.5981    0.0000 C   0  0  0  0  0  0  0  0  0  0  0  0
   -3.7500    3.8971    0.0000 C   0  0  0  0  0  0  0  0  0  0  0  0
   -5.2500    3.8971    0.0000 O   0  0  0  0  0  0  0  0  0  0  0  0
   -6.0000    5.1962    0.0000 C   0  0  0  0  0  0  0  0  0  0  0  0
   -5.2500    6.4952    0.0000 N   0  0  0  0  0  0  0  0  0  0  0  0
   -6.0000    7.7942    0.0000 C   0  0  0  0  0  0  0  0  0  0  0  0
   -7.5000    7.7942    0.0000 C   0  0  0  0  0  0  0  0  0  0  0  0
   -8.2500    9.0933    0.0000 Br  0  0  0  0  0  0  0  0  0  0  0  0
   -8.2500    6.4952    0.0000 C   0  0  0  0  0  0  0  0  0  0  0  0
   -7.5000    5.1962    0.0000 N   0  0  0  0  0  0  0  0  0  0  0  0
    0.7500    1.2990    0.0000 C   0  0  0  0  0  0  0  0  0  0  0  0
    1.5000    2.5981    0.0000 C   0  0  0  0  0  0  0  0  0  0  0  0
    3.0000    2.5981    0.0000 C   0  0  0  0  0  0  0  0  0  0  0  0
    3.7500    3.8971    0.0000 C   0  0  0  0  0  0  0  0  0  0  0  0
    3.0000    5.1962    0.0000 C   0  0  0  0  0  0  0  0  0  0  0  0
    3.7500    6.4952    0.0000 Br  0  0  0  0  0  0  0  0  0  0  0  0
    1.5000    5.1962    0.0000 C   0  0  0  0  0  0  0  0  0  0  0  0
    0.7500    3.8971    0.0000 C   0  0  0  0  0  0  0  0  0  0  0  0
  1  2  1  0
  2  3  1  0
  3  4  1  0
  4  5  1  0
  5  6  2  0
  5  7  2  0
  5  8  1  0
  8  9  1  0
  9 10  2  0
 10 11  1  0
 11 12  2  0
 12 13  1  0
 13 14  1  0
 14 15  1  0
 15 16  1  0
 16 17  1  0
 17 18  1  0
 18 19  2  0
 19 20  1  0
 20 21  2  0
 21 22  1  0
 21 23  1  0
 23 24  2  0
 13 25  2  0
 25 26  1  0
 26 27  2  0
 27 28  1  0
 28 29  2  0
 29 30  1  0
 29 31  1  0
 31 32  2  0
 25  9  1  0
 24 18  1  0
 32 26  1  0
M  END
$$$$
88815
     RDKit          2D

 14 15  0  0  0  0  0  0  0  0999 V2000
    6.0000   -2.5981    0.0000 C   0  0  0  0  0  0  0  0  0  0  0  0
    5.2500   -1.2990    0.0000 C   0  0  0  0  0  0  0  0  0  0  0  0
    3.7500   -1.2990    0.0000 C   0  0  0  0  0  0  0  0  0  0  0  0
    3.0000    0.0000    0.0000 N   0  0  0  0  0  0  0  0  0  0  0  0
    1.5000    0.0000    0.0000 C   0  0  0  0  0  0  0  0  0  0  0  0
    0.7500   -1.2990    0.0000 C   0  0  0  0  0  0  0  0  0  0  0  0
   -0.7500   -1.2990    0.0000 C   0  0  0  0  0  0  0  0  0  0  0  0
   -1.5000    0.0000    0.0000 C   0  0  0  0  0  0  0  0  0  0  0  0
   -2.9672    0.3119    0.0000 N   0  0  0  0  0  0  0  0  0  0  0  0
   -3.1240    1.8037    0.0000 C   0  0  0  0  0  0  0  0  0  0  0  0
   -4.4231    2.5537    0.0000 N   0  0  0  0  0  0  0  0  0  0  0  0
   -1.7537    2.4138    0.0000 S   0  0  0  0  0  0  0  0  0  0  0  0
   -0.7500    1.2990    0.0000 C   0  0  0  0  0  0  0  0  0  0  0  0
    0.7500    1.2990    0.0000 C   0  0  0  0  0  0  0  0  0  0  0  0
  1  2  1  0
  2  3  1  0
  3  4  1  0
  5  4  1  1
  5  6  1  0
  6  7  1  0
  7  8  1  0
  8  9  1  0
  9 10  2  0
 10 11  1  0
 10 12  1  0
 12 13  1  0
 13 14  1  0
 14  5  1  0
 13  8  2  0
M  END
$$$$
691867
     RDKit          2D

 33 36  0  0  0  0  0  0  0  0999 V2000
   -3.3966  -12.9962    0.0000 C   0  0  0  0  0  0  0  0  0  0  0  0
   -3.0847  -11.5290    0.0000 C   0  0  0  0  0  0  0  0  0  0  0  0
   -1.6581  -11.0654    0.0000 C   0  0  0  0  0  0  0  0  0  0  0  0
   -1.3463   -9.5982    0.0000 S   0  0  0  0  0  0  0  0  0  0  0  0
   -2.8135   -9.2863    0.0000 O   0  0  0  0  0  0  0  0  0  0  0  0
    0.1209   -9.9101    0.0000 O   0  0  0  0  0  0  0  0  0  0  0  0
   -1.0344   -8.1310    0.0000 N   0  0  0  0  0  0  0  0  0  0  0  0
   -2.1491   -7.1273    0.0000 C   0  0  0  0  0  0  0  0  0  0  0  0
   -3.5757   -7.5908    0.0000 C   0  0  0  0  0  0  0  0  0  0  0  0
   -4.6904   -6.5871    0.0000 C   0  0  0  0  0  0  0  0  0  0  0  0
   -4.3786   -5.1199    0.0000 C   0  0  0  0  0  0  0  0  0  0  0  0
   -5.4933   -4.1162    0.0000 F   0  0  0  0  0  0  0  0  0  0  0  0
   -2.9520   -4.6564    0.0000 C   0  0  0  0  0  0  0  0  0  0  0  0
   -2.6401   -3.1891    0.0000 C   0  0  0  0  0  0  0  0  0  0  0  0
   -3.7548   -2.1855    0.0000 O   0  0  0  0  0  0  0  0  0  0  0  0
   -1.2135   -2.7256    0.0000 C   0  0  0  0  0  0  0  0  0  0  0  0
   -0.0000   -3.6073    0.0000 C   0  0  0  0  0  0  0  0  0  0  0  0
    1.2135   -2.7256    0.0000 N   0  0  0  0  0  0  0  0  0  0  0  0
    0.7500   -1.2990    0.0000 C   0  0  0  0  0  0  0  0  0  0  0  0
    1.5000    0.0000    0.0000 N   0  0  0  0  0  0  0  0  0  0  0  0
    0.7500    1.2990    0.0000 C   0  0  0  0  0  0  0  0  0  0  0  0
   -0.7500    1.2990    0.0000 C   0  0  0  0  0  0  0  0  0  0  0  0
   -1.5000    0.0000    0.0000 C   0  0  0  0  0  0  0  0  0  0  0  0
   -0.7500   -1.2990    0.0000 C   0  0  0  0  0  0  0  0  0  0  0  0
   -1.5000    2.5981    0.0000 C   0  0  0  0  0  0  0  0  0  0  0  0
   -0.7500    3.8971    0.0000 C   0  0  0  0  0  0  0  0  0  0  0  0
   -1.5000    5.1962    0.0000 C   0  0  0  0  0  0  0  0  0  0  0  0
   -3.0000    5.1962    0.0000 C   0  0  0  0  0  0  0  0  0  0  0  0
   -3.7500    6.4952    0.0000 Cl  0  0  0  0  0  0  0  0  0  0  0  0
   -3.7500    3.8971    0.0000 C   0  0  0  0  0  0  0  0  0  0  0  0
   -3.0000    2.5981    0.0000 C   0  0  0  0  0  0  0  0  0  0  0  0
   -1.8373   -5.6601    0.0000 C   0  0  0  0  0  0  0  0  0  0  0  0
   -0.4107   -5.1965    0.0000 F   0  0  0  0  0  0  0  0  0  0  0  0
  1  2  1  0
  2  3  1  0
  3  4  1  0
  4  5  2  0
  4  6  2  0
  4  7  1  0
  7  8  1  0
  8  9  2  0
  9 10  1  0
 10 11  2  0
 11 12  1  0
 11 13  1  0
 13 14  1  0
 14 15  2  0
 14 16  1  0
 16 17  2  0
 17 18  1  0
 18 19  1  0
 19 20  2  0
 20 21  1  0
 21 22  2  0
 22 23  1  0
 23 24  2  0
 22 25  1  0
 25 26  2  0
 26 27  1  0
 27 28  2  0
 28 29  1  0
 28 30  1  0
 30 31  2  0
 13 32  2  0
 32 33  1  0
 32  8  1  0
 24 16  1  0
 24 19  1  0
 31 25  1  0
M  END
$$$$
406787
     RDKit          2D

 18 19  0  0  0  0  0  0  0  0999 V2000
    6.0000   -2.5981    0.0000 C   0  0  0  0  0  0  0  0  0  0  0  0
    5.2500   -1.2990    0.0000 C   0  0  0  0  0  0  0  0  0  0  0  0
    3.7500   -1.2990    0.0000 C   0  0  0  0  0  0  0  0  0  0  0  0
    3.0000    0.0000    0.0000 S   0  0  0  0  0  0  0  0  0  0  0  0
    1.5000    0.0000    0.0000 C   0  0  0  0  0  0  0  0  0  0  0  0
    0.7500   -1.2990    0.0000 C   0  0  0  0  0  0  0  0  0  0  0  0
   -0.7500   -1.2990    0.0000 C   0  0  0  0  0  0  0  0  0  0  0  0
   -1.5000    0.0000    0.0000 C   0  0  0  0  0  0  0  0  0  0  0  0
   -2.9672    0.3119    0.0000 N   0  0  0  0  0  0  0  0  0  0  0  0
   -3.1240    1.8037    0.0000 C   0  0  0  0  0  0  0  0  0  0  0  0
   -4.4231    2.5537    0.0000 N   0  0  0  0  0  0  0  0  0  0  0  0
   -4.4231    4.0537    0.0000 C   0  0  0  0  0  0  0  0  0  0  0  0
   -3.1240    4.8037    0.0000 O   0  0  0  0  0  0  0  0  0  0  0  0
   -5.7221    4.8037    0.0000 O   0  0  0  0  0  0  0  0  0  0  0  0
   -5.7221    6.3037    0.0000 C   0  0  0  0  0  0  0  0  0  0  0  0
   -1.7537    2.4138    0.0000 N   0  0  0  0  0  0  0  0  0  0  0  0
   -0.7500    1.2990    0.0000 C   0  0  0  0  0  0  0  0  0  0  0  0
    0.7500    1.2990    0.0000 C   0  0  0  0  0  0  0  0  0  0  0  0
  1  2  1  0
  2  3  1  0
  3  4  1  0
  4  5  1  0
  5  6  2  0
  6  7  1  0
  7  8  2  0
  8  9  1  0
  9 10  2  0
 10 11  1  0
 11 12  1  0
 12 13  2  0
 12 14  1  0
 14 15  1  0
 10 16  1  0
 16 17  1  0
 17 18  2  0
 18  5  1  0
 17  8  1  0
M  END
$$$$
416772
     RDKit          2D

 36 40  0  0  0  0  0  0  0  0999 V2000
   -3.4408    8.1628    0.0000 C   0  0  0  0  0  0  0  0  0  0  0  0
   -3.7527    6.6955    0.0000 C   0  0  0  0  0  0  0  0  0  0  0  0
   -2.6380    5.6918    0.0000 C   0  0  0  0  0  0  0  0  0  0  0  0
   -2.9499    4.2246    0.0000 S   0  0  0  0  0  0  0  0  0  0  0  0
   -1.8351    3.2209    0.0000 C   0  0  0  0  0  0  0  0  0  0  0  0
   -0.4086    3.6844    0.0000 N   0  0  0  0  0  0  0  0  0  0  0  0
    0.7062    2.6807    0.0000 C   0  0  0  0  0  0  0  0  0  0  0  0
    2.1328    3.1443    0.0000 N   0  0  0  0  0  0  0  0  0  0  0  0
    2.4446    4.6115    0.0000 C   0  0  0  0  0  0  0  0  0  0  0  0
    1.9811    6.0381    0.0000 C   0  0  0  0  0  0  0  0  0  0  0  0
    3.4483    5.7262    0.0000 C   0  0  0  0  0  0  0  0  0  0  0  0
    4.8749    6.1897    0.0000 C   0  0  0  0  0  0  0  0  0  0  0  0
    5.9896    5.1860    0.0000 C   0  0  0  0  0  0  0  0  0  0  0  0
    7.4162    5.6496    0.0000 C   0  0  0  0  0  0  0  0  0  0  0  0
    7.7281    7.1168    0.0000 C   0  0  0  0  0  0  0  0  0  0  0  0
    9.1547    7.5803    0.0000 F   0  0  0  0  0  0  0  0  0  0  0  0
    6.6134    8.1205    0.0000 C   0  0  0  0  0  0  0  0  0  0  0  0
    6.9252    9.5877    0.0000 F   0  0  0  0  0  0  0  0  0  0  0  0
    5.1868    7.6570    0.0000 C   0  0  0  0  0  0  0  0  0  0  0  0
    0.3943    1.2135    0.0000 C   0  0  0  0  0  0  0  0  0  0  0  0
    1.2760    0.0000    0.0000 N   0  0  0  0  0  0  0  0  0  0  0  0
    0.3943   -1.2135    0.0000 N   0  0  0  0  0  0  0  0  0  0  0  0
   -1.0323   -0.7500    0.0000 N   0  0  0  0  0  0  0  0  0  0  0  0
   -2.2458   -1.6317    0.0000 C   0  0  0  0  0  0  0  0  0  0  0  0
   -2.2458   -3.1317    0.0000 C   0  0  0  0  0  0  0  0  0  0  0  0
   -3.6724   -3.5952    0.0000 C   0  0  0  0  0  0  0  0  0  0  0  0
   -4.1359   -5.0218    0.0000 O   0  0  0  0  0  0  0  0  0  0  0  0
   -5.6031   -5.3337    0.0000 C   0  0  0  0  0  0  0  0  0  0  0  0
   -6.0667   -6.7602    0.0000 C   0  0  0  0  0  0  0  0  0  0  0  0
   -7.5339   -7.0721    0.0000 O   0  0  0  0  0  0  0  0  0  0  0  0
   -4.5541   -2.3817    0.0000 C   0  0  0  0  0  0  0  0  0  0  0  0
   -6.0541   -2.3817    0.0000 O   0  0  0  0  0  0  0  0  0  0  0  0
   -3.6724   -1.1682    0.0000 C   0  0  0  0  0  0  0  0  0  0  0  0
   -4.1359    0.2584    0.0000 O   0  0  0  0  0  0  0  0  0  0  0  0
   -1.0323    0.7500    0.0000 C   0  0  0  0  0  0  0  0  0  0  0  0
   -2.1470    1.7537    0.0000 N   0  0  0  0  0  0  0  0  0  0  0  0
  1  2  1  0
  2  3  1  0
  3  4  1  0
  4  5  1  0
  5  6  2  0
  6  7  1  0
  7  8  1  0
  9  8  1  6
  9 10  1  0
 10 11  1  0
 11 12  1  1
 12 13  2  0
 13 14  1  0
 14 15  2  0
 15 16  1  0
 15 17  1  0
 17 18  1  0
 17 19  2  0
  7 20  2  0
 20 21  1  0
 21 22  2  0
 22 23  1  0
 24 23  1  6
 24 25  1  0
 25 26  1  0
 26 27  1  6
 27 28  1  0
 28 29  1  0
 29 30  1  0
 26 31  1  0
 31 32  1  1
 31 33  1  0
 33 34  1  1
 23 35  1  0
 35 36  2  0
 36  5  1  0
 11  9  1  0
 19 12  1  0
 35 20  1  0
 33 24  1  0
M  END
$$$$
378207
     RDKit          2D

 27 28  0  0  0  0  0  0  0  0999 V2000
   -0.6546  -12.7344    0.0000 C   0  0  0  0  0  0  0  0  0  0  0  0
   -0.8113  -11.2427    0.0000 C   0  0  0  0  0  0  0  0  0  0  0  0
    0.4022  -10.3610    0.0000 C   0  0  0  0  0  0  0  0  0  0  0  0
    0.2454   -8.8692    0.0000 C   0  0  0  0  0  0  0  0  0  0  0  0
    1.3601   -7.8655    0.0000 C   0  0  0  0  0  0  0  0  0  0  0  0
    0.7500   -6.4952    0.0000 C   0  0  0  0  0  0  0  0  0  0  0  0
   -0.7418   -6.6520    0.0000 N   0  0  0  0  0  0  0  0  0  0  0  0
   -1.7455   -5.5373    0.0000 C   0  0  0  0  0  0  0  0  0  0  0  0
   -1.0537   -8.1192    0.0000 C   0  0  0  0  0  0  0  0  0  0  0  0
    1.5000   -5.1962    0.0000 C   0  0  0  0  0  0  0  0  0  0  0  0
    3.0000   -5.1962    0.0000 O   0  0  0  0  0  0  0  0  0  0  0  0
    0.7500   -3.8971    0.0000 N   0  0  0  0  0  0  0  0  0  0  0  0
    1.5000   -2.5981    0.0000 C   0  0  0  0  0  0  0  0  0  0  0  0
    3.0000   -2.5981    0.0000 C   0  0  0  0  0  0  0  0  0  0  0  0
    3.7500   -3.8971    0.0000 C   0  0  0  0  0  0  0  0  0  0  0  0
    3.7500   -1.2990    0.0000 O   0  0  0  0  0  0  0  0  0  0  0  0
    0.7500   -1.2990    0.0000 C   0  0  0  0  0  0  0  0  0  0  0  0
    1.5000    0.0000    0.0000 O   0  0  0  0  0  0  0  0  0  0  0  0
    0.7500    1.2990    0.0000 C   0  0  0  0  0  0  0  0  0  0  0  0
    1.5000    2.5981    0.0000 S   0  0  0  0  0  0  0  0  0  0  0  0
    3.0000    2.5981    0.0000 C   0  0  0  0  0  0  0  0  0  0  0  0
   -0.7500    1.2990    0.0000 C   0  0  0  0  0  0  0  0  0  0  0  0
   -1.5000    2.5981    0.0000 O   0  0  0  0  0  0  0  0  0  0  0  0
   -1.5000    0.0000    0.0000 C   0  0  0  0  0  0  0  0  0  0  0  0
   -3.0000    0.0000    0.0000 O   0  0  0  0  0  0  0  0  0  0  0  0
   -0.7500   -1.2990    0.0000 C   0  0  0  0  0  0  0  0  0  0  0  0
   -1.5000   -2.5981    0.0000 O   0  0  0  0  0  0  0  0  0  0  0  0
  1  2  1  0
  2  3  1  0
  4  3  1  1
  4  5  1  0
  5  6  1  0
  6  7  1  0
  7  8  1  0
  7  9  1  0
  6 10  1  6
 10 11  2  0
 10 12  1  0
 13 12  1  1
 13 14  1  0
 14 15  1  6
 14 16  1  0
 13 17  1  0
 17 18  1  6
 18 19  1  0
 19 20  1  1
 20 21  1  0
 19 22  1  0
 22 23  1  1
 22 24  1  0
 24 25  1  6
 24 26  1  0
 26 27  1  6
  9  4  1  0
 26 17  1  0
M  END
$$$$
581843
     RDKit          2D

 27 28  0  0  0  0  0  0  0  0999 V2000
   -0.6546  -12.7344    0.0000 C   0  0  0  0  0  0  0  0  0  0  0  0
   -0.8113  -11.2427    0.0000 C   0  0  0  0  0  0  0  0  0  0  0  0
    0.4022  -10.3610    0.0000 C   0  0  0  0  0  0  0  0  0  0  0  0
    0.2454   -8.8692    0.0000 C   0  0  0  0  0  0  0  0  0  0  0  0
    1.3601   -7.8655    0.0000 C   0  0  0  0  0  0  0  0  0  0  0  0
    0.7500   -6.4952    0.0000 C   0  0  0  0  0  0  0  0  0  0  0  0
   -0.7418   -6.6520    0.0000 N   0  0  0  0  0  0  0  0  0  0  0  0
   -1.7455   -5.5373    0.0000 C   0  0  0  0  0  0  0  0  0  0  0  0
   -1.0537   -8.1192    0.0000 C   0  0  0  0  0  0  0  0  0  0  0  0
    1.5000   -5.1962    0.0000 C   0  0  0  0  0  0  0  0  0  0  0  0
    3.0000   -5.1962    0.0000 O   0  0  0  0  0  0  0  0  0  0  0  0
    0.7500   -3.8971    0.0000 N   0  0  0  0  0  0  0  0  0  0  0  0
    1.5000   -2.5981    0.0000 C   0  0  0  0  0  0  0  0  0  0  0  0
    3.0000   -2.5981    0.0000 C   0  0  0  0  0  0  0  0  0  0  0  0
    3.7500   -3.8971    0.0000 C   0  0  0  0  0  0  0  0  0  0  0  0
    3.7500   -1.2990    0.0000 Cl  0  0  0  0  0  0  0  0  0  0  0  0
    0.7500   -1.2990    0.0000 C   0  0  0  0  0  0  0  0  0  0  0  0
    1.5000    0.0000    0.0000 O   0  0  0  0  0  0  0  0  0  0  0  0
    0.7500    1.2990    0.0000 C   0  0  0  0  0  0  0  0  0  0  0  0
    1.5000    2.5981    0.0000 S   0  0  0  0  0  0  0  0  0  0  0  0
    3.0000    2.5981    0.0000 C   0  0  0  0  0  0  0  0  0  0  0  0
   -0.7500    1.2990    0.0000 C   0  0  0  0  0  0  0  0  0  0  0  0
   -1.5000    2.5981    0.0000 O   0  0  0  0  0  0  0  0  0  0  0  0
   -1.5000    0.0000    0.0000 C   0  0  0  0  0  0  0  0  0  0  0  0
   -3.0000    0.0000    0.0000 O   0  0  0  0  0  0  0  0  0  0  0  0
   -0.7500   -1.2990    0.0000 C   0  0  0  0  0  0  0  0  0  0  0  0
   -1.5000   -2.5981    0.0000 O   0  0  0  0  0  0  0  0  0  0  0  0
  1  2  1  0
  2  3  1  0
  4  3  1  1
  4  5  1  0
  5  6  1  0
  6  7  1  0
  7  8  1  0
  7  9  1  0
  6 10  1  6
 10 11  2  0
 10 12  1  0
 13 12  1  1
 13 14  1  0
 14 15  1  1
 14 16  1  0
 13 17  1  0
 17 18  1  6
 18 19  1  0
 19 20  1  1
 20 21  1  0
 19 22  1  0
 22 23  1  1
 22 24  1  0
 24 25  1  6
 24 26  1  0
 26 27  1  6
  9  4  1  0
 26 17  1  0
M  END
$$$$
372438
     RDKit          2D

 42 45  0  0  0  0  0  0  0  0999 V2000
    5.2077   -3.7808    0.0000 C   0  0  0  0  0  0  0  0  0  0  0  0
    4.0586   -4.7450    0.0000 C   0  0  0  0  0  0  0  0  0  0  0  0
    2.6491   -4.2320    0.0000 C   0  0  0  0  0  0  0  0  0  0  0  0
    1.5000   -5.1962    0.0000 C   0  0  0  0  0  0  0  0  0  0  0  0
    0.7500   -3.8971    0.0000 C   0  0  0  0  0  0  0  0  0  0  0  0
    1.5000   -2.5981    0.0000 C   0  0  0  0  0  0  0  0  0  0  0  0
    0.7500   -1.2990    0.0000 C   0  0  0  0  0  0  0  0  0  0  0  0
    1.5000    0.0000    0.0000 C   0  0  0  0  0  0  0  0  0  0  0  0
    0.7500    1.2990    0.0000 C   0  0  0  0  0  0  0  0  0  0  0  0
   -0.7500    1.2990    0.0000 C   0  0  0  0  0  0  0  0  0  0  0  0
   -1.5000    0.0000    0.0000 C   0  0  0  0  0  0  0  0  0  0  0  0
   -0.7500   -1.2990    0.0000 C   0  0  0  0  0  0  0  0  0  0  0  0
    0.0905   -5.7092    0.0000 C   0  0  0  0  0  0  0  0  0  0  0  0
   -0.1700   -7.1864    0.0000 C   0  0  0  0  0  0  0  0  0  0  0  0
    0.9791   -8.1506    0.0000 C   0  0  0  0  0  0  0  0  0  0  0  0
    0.7186   -9.6278    0.0000 C   0  0  0  0  0  0  0  0  0  0  0  0
    1.8676  -10.5920    0.0000 C   0  0  0  0  0  0  0  0  0  0  0  0
    1.6072  -12.0692    0.0000 C   0  0  0  0  0  0  0  0  0  0  0  0
   -0.6910  -10.1408    0.0000 C   0  0  0  0  0  0  0  0  0  0  0  0
   -1.8400   -9.1766    0.0000 C   0  0  0  0  0  0  0  0  0  0  0  0
   -3.2496   -9.6897    0.0000 C   0  0  0  0  0  0  0  0  0  0  0  0
   -3.5100  -11.1669    0.0000 C   0  0  0  0  0  0  0  0  0  0  0  0
   -2.3610  -12.1311    0.0000 C   0  0  0  0  0  0  0  0  0  0  0  0
   -2.6214  -13.6083    0.0000 N   0  0  0  0  0  0  0  0  0  0  0  0
   -4.0310  -14.1213    0.0000 S   0  0  0  0  0  0  0  0  0  0  0  0
   -4.5440  -12.7118    0.0000 O   0  0  0  0  0  0  0  0  0  0  0  0
   -3.5179  -15.5308    0.0000 O   0  0  0  0  0  0  0  0  0  0  0  0
   -5.4405  -14.6343    0.0000 C   0  0  0  0  0  0  0  0  0  0  0  0
   -6.5896  -13.6702    0.0000 C   0  0  0  0  0  0  0  0  0  0  0  0
   -7.9991  -14.1832    0.0000 C   0  0  0  0  0  0  0  0  0  0  0  0
   -8.2596  -15.6604    0.0000 C   0  0  0  0  0  0  0  0  0  0  0  0
   -7.1105  -16.6246    0.0000 C   0  0  0  0  0  0  0  0  0  0  0  0
   -5.7010  -16.1115    0.0000 N   0  0  0  0  0  0  0  0  0  0  0  0
   -9.6691  -16.1734    0.0000 C   0  0  0  0  0  0  0  0  0  0  0  0
  -11.0787  -16.6865    0.0000 F   0  0  0  0  0  0  0  0  0  0  0  0
  -10.1822  -14.7639    0.0000 F   0  0  0  0  0  0  0  0  0  0  0  0
   -9.1561  -17.5830    0.0000 F   0  0  0  0  0  0  0  0  0  0  0  0
   -0.9514  -11.6180    0.0000 C   0  0  0  0  0  0  0  0  0  0  0  0
    2.3886   -7.6375    0.0000 C   0  0  0  0  0  0  0  0  0  0  0  0
    3.5377   -8.6017    0.0000 O   0  0  0  0  0  0  0  0  0  0  0  0
    2.6491   -6.1603    0.0000 O   0  0  0  0  0  0  0  0  0  0  0  0
   -1.5796   -7.6994    0.0000 O   0  0  0  0  0  0  0  0  0  0  0  0
  1  2  1  0
  2  3  1  0
  4  3  1  6
  4  5  1  0
  5  6  1  0
  6  7  1  0
  7  8  2  0
  8  9  1  0
  9 10  2  0
 10 11  1  0
 11 12  2  0
  4 13  1  0
 13 14  1  0
 14 15  2  0
 15 16  1  0
 16 17  1  6
 17 18  1  0
 16 19  1  0
 19 20  2  0
 20 21  1  0
 21 22  2  0
 22 23  1  0
 23 24  1  0
 24 25  1  0
 25 26  2  0
 25 27  2  0
 25 28  1  0
 28 29  2  0
 29 30  1  0
 30 31  2  0
 31 32  1  0
 32 33  2  0
 31 34  1  0
 34 35  1  0
 34 36  1  0
 34 37  1  0
 23 38  2  0
 15 39  1  0
 39 40  2  0
 39 41  1  0
 14 42  1  0
 41  4  1  0
 12  7  1  0
 38 19  1  0
 33 28  1  0
M  END
$$$$
453579
     RDKit          2D

 26 27  0  0  0  0  0  0  0  0999 V2000
    0.2316  -10.6019    0.0000 C   0  0  0  0  0  0  0  0  0  0  0  0
    1.3463   -9.5982    0.0000 C   0  0  0  0  0  0  0  0  0  0  0  0
    1.0344   -8.1310    0.0000 C   0  0  0  0  0  0  0  0  0  0  0  0
    2.1491   -7.1273    0.0000 C   0  0  0  0  0  0  0  0  0  0  0  0
    1.8373   -5.6601    0.0000 N   0  0  0  0  0  0  0  0  0  0  0  0
    2.9520   -4.6564    0.0000 C   0  0  0  0  0  0  0  0  0  0  0  0
    4.3786   -5.1199    0.0000 C   0  0  0  0  0  0  0  0  0  0  0  0
    2.6401   -3.1891    0.0000 C   0  0  0  0  0  0  0  0  0  0  0  0
    3.7548   -2.1855    0.0000 O   0  0  0  0  0  0  0  0  0  0  0  0
    1.2135   -2.7256    0.0000 N   0  0  0  0  0  0  0  0  0  0  0  0
   -0.0000   -3.6073    0.0000 C   0  0  0  0  0  0  0  0  0  0  0  0
   -0.1568   -5.0991    0.0000 C   0  0  0  0  0  0  0  0  0  0  0  0
   -1.5271   -5.7092    0.0000 C   0  0  0  0  0  0  0  0  0  0  0  0
   -2.7406   -4.8275    0.0000 C   0  0  0  0  0  0  0  0  0  0  0  0
   -2.5838   -3.3357    0.0000 C   0  0  0  0  0  0  0  0  0  0  0  0
   -1.2135   -2.7256    0.0000 C   0  0  0  0  0  0  0  0  0  0  0  0
   -0.7500   -1.2990    0.0000 C   0  0  0  0  0  0  0  0  0  0  0  0
    0.7500   -1.2990    0.0000 C   0  0  0  0  0  0  0  0  0  0  0  0
    1.6317   -0.0855    0.0000 C   0  0  0  0  0  0  0  0  0  0  0  0
    3.1235   -0.2423    0.0000 O   0  0  0  0  0  0  0  0  0  0  0  0
    1.0216    1.2848    0.0000 O   0  0  0  0  0  0  0  0  0  0  0  0
    3.5757   -7.5908    0.0000 C   0  0  0  0  0  0  0  0  0  0  0  0
    4.6904   -6.5871    0.0000 O   0  0  0  0  0  0  0  0  0  0  0  0
    3.8876   -9.0580    0.0000 O   0  0  0  0  0  0  0  0  0  0  0  0
    5.3142   -9.5216    0.0000 C   0  0  0  0  0  0  0  0  0  0  0  0
    5.6260  -10.9888    0.0000 C   0  0  0  0  0  0  0  0  0  0  0  0
  1  2  1  0
  2  3  1  0
  4  3  1  6
  4  5  1  0
  5  6  1  0
  6  7  1  6
  6  8  1  0
  8  9  2  0
  8 10  1  0
 10 11  1  0
 11 12  1  1
 12 13  1  0
 13 14  1  0
 14 15  1  0
 16 15  1  1
 16 17  1  0
 17 18  1  0
 18 19  1  1
 19 20  2  0
 19 21  1  0
  4 22  1  0
 22 23  2  0
 22 24  1  0
 24 25  1  0
 25 26  1  0
 18 10  1  0
 16 11  1  0
M  END
$$$$
674294
     RDKit          2D

 31 31  0  0  0  0  0  0  0  0999 V2000
    0.2316  -10.6019    0.0000 C   0  0  0  0  0  0  0  0  0  0  0  0
    1.3463   -9.5982    0.0000 C   0  0  0  0  0  0  0  0  0  0  0  0
    1.0344   -8.1310    0.0000 C   0  0  0  0  0  0  0  0  0  0  0  0
    2.1491   -7.1273    0.0000 C   0  0  0  0  0  0  0  0  0  0  0  0
    1.8373   -5.6601    0.0000 N   0  0  0  0  0  0  0  0  0  0  0  0
    2.9520   -4.6564    0.0000 C   0  0  0  0  0  0  0  0  0  0  0  0
    4.3786   -5.1199    0.0000 C   0  0  0  0  0  0  0  0  0  0  0  0
    2.6401   -3.1891    0.0000 C   0  0  0  0  0  0  0  0  0  0  0  0
    3.7548   -2.1855    0.0000 O   0  0  0  0  0  0  0  0  0  0  0  0
    1.2135   -2.7256    0.0000 N   0  0  0  0  0  0  0  0  0  0  0  0
   -0.0000   -3.6073    0.0000 C   0  0  0  0  0  0  0  0  0  0  0  0
   -0.1568   -5.0991    0.0000 C   0  0  0  0  0  0  0  0  0  0  0  0
   -1.5271   -5.7092    0.0000 C   0  0  0  0  0  0  0  0  0  0  0  0
   -2.7406   -4.8275    0.0000 C   0  0  0  0  0  0  0  0  0  0  0  0
   -2.5838   -3.3357    0.0000 C   0  0  0  0  0  0  0  0  0  0  0  0
   -1.2135   -2.7256    0.0000 C   0  0  0  0  0  0  0  0  0  0  0  0
   -0.7500   -1.2990    0.0000 C   0  0  0  0  0  0  0  0  0  0  0  0
    0.7500   -1.2990    0.0000 C   0  0  0  0  0  0  0  0  0  0  0  0
    1.6317   -0.0855    0.0000 C   0  0  0  0  0  0  0  0  0  0  0  0
    3.1235   -0.2423    0.0000 O   0  0  0  0  0  0  0  0  0  0  0  0
    1.0216    1.2848    0.0000 O   0  0  0  0  0  0  0  0  0  0  0  0
    3.5757   -7.5908    0.0000 C   0  0  0  0  0  0  0  0  0  0  0  0
    4.6904   -6.5871    0.0000 O   0  0  0  0  0  0  0  0  0  0  0  0
    3.8876   -9.0580    0.0000 O   0  0  0  0  0  0  0  0  0  0  0  0
    5.3142   -9.5216    0.0000 C   0  0  0  0  0  0  0  0  0  0  0  0
    5.6260  -10.9888    0.0000 C   0  0  0  0  0  0  0  0  0  0  0  0
    6.6260    0.0000    0.0000 C   0  0  0  0  0  0  0  0  0  0  0  0
    7.9251    0.7500    0.0000 C   0  0  0  0  0  0  0  0  0  0  0  0
    9.2241    1.5000    0.0000 C   0  0  0  0  0  0  0  0  0  0  0  0
    8.6751   -0.5490    0.0000 C   0  0  0  0  0  0  0  0  0  0  0  0
    7.1751    2.0490    0.0000 N   0  0  0  0  0  0  0  0  0  0  0  0
  1  2  1  0
  2  3  1  0
  4  3  1  6
  4  5  1  0
  5  6  1  0
  6  7  1  6
  6  8  1  0
  8  9  2  0
  8 10  1  0
 10 11  1  0
 11 12  1  1
 12 13  1  0
 13 14  1  0
 14 15  1  0
 16 15  1  1
 16 17  1  0
 17 18  1  0
 18 19  1  1
 19 20  2  0
 19 21  1  0
  4 22  1  0
 22 23  2  0
 22 24  1  0
 24 25  1  0
 25 26  1  0
 27 28  1  0
 28 29  1  0
 28 30  1  0
 28 31  1  0
 18 10  1  0
 16 11  1  0
M  END
$$$$
1926835
     RDKit          2D

 38 38  0  0  0  0  0  0  0  0999 V2000
    0.2316  -10.6019    0.0000 C   0  0  0  0  0  0  0  0  0  0  0  0
    1.3463   -9.5982    0.0000 C   0  0  0  0  0  0  0  0  0  0  0  0
    1.0344   -8.1310    0.0000 C   0  0  0  0  0  0  0  0  0  0  0  0
    2.1491   -7.1273    0.0000 C   0  0  0  0  0  0  0  0  0  0  0  0
    1.8373   -5.6601    0.0000 N   0  0  0  0  0  0  0  0  0  0  0  0
    2.9520   -4.6564    0.0000 C   0  0  0  0  0  0  0  0  0  0  0  0
    4.3786   -5.1199    0.0000 C   0  0  0  0  0  0  0  0  0  0  0  0
    2.6401   -3.1891    0.0000 C   0  0  0  0  0  0  0  0  0  0  0  0
    3.7548   -2.1855    0.0000 O   0  0  0  0  0  0  0  0  0  0  0  0
    1.2135   -2.7256    0.0000 N   0  0  0  0  0  0  0  0  0  0  0  0
   -0.0000   -3.6073    0.0000 C   0  0  0  0  0  0  0  0  0  0  0  0
   -0.1568   -5.0991    0.0000 C   0  0  0  0  0  0  0  0  0  0  0  0
   -1.5271   -5.7092    0.0000 C   0  0  0  0  0  0  0  0  0  0  0  0
   -2.7406   -4.8275    0.0000 C   0  0  0  0  0  0  0  0  0  0  0  0
   -2.5838   -3.3357    0.0000 C   0  0  0  0  0  0  0  0  0  0  0  0
   -1.2135   -2.7256    0.0000 C   0  0  0  0  0  0  0  0  0  0  0  0
   -0.7500   -1.2990    0.0000 C   0  0  0  0  0  0  0  0  0  0  0  0
    0.7500   -1.2990    0.0000 C   0  0  0  0  0  0  0  0  0  0  0  0
    1.6317   -0.0855    0.0000 C   0  0  0  0  0  0  0  0  0  0  0  0
    3.1235   -0.2423    0.0000 O   0  0  0  0  0  0  0  0  0  0  0  0
    1.0216    1.2848    0.0000 O   0  0  0  0  0  0  0  0  0  0  0  0
    3.5757   -7.5908    0.0000 C   0  0  0  0  0  0  0  0  0  0  0  0
    4.6904   -6.5871    0.0000 O   0  0  0  0  0  0  0  0  0  0  0  0
    3.8876   -9.0580    0.0000 O   0  0  0  0  0  0  0  0  0  0  0  0
    5.3142   -9.5216    0.0000 C   0  0  0  0  0  0  0  0  0  0  0  0
    5.6260  -10.9888    0.0000 C   0  0  0  0  0  0  0  0  0  0  0  0
    9.2241    2.2500    0.0000 N   0  0  0  0  0  0  0  0  0  0  0  0
    9.2241    0.7500    0.0000 C   0  0  0  0  0  0  0  0  0  0  0  0
   10.5231    0.0000    0.0000 C   0  0  0  0  0  0  0  0  0  0  0  0
   11.8222    0.7500    0.0000 C   0  0  0  0  0  0  0  0  0  0  0  0
   13.1212   -0.0000    0.0000 C   0  0  0  0  0  0  0  0  0  0  0  0
   14.4203    0.7500    0.0000 N   0  0  0  0  0  0  0  0  0  0  0  0
   15.7193   -0.0000    0.0000 C   0  0  0  0  0  0  0  0  0  0  0  0
   15.7193   -1.5000    0.0000 N   0  0  0  0  0  0  0  0  0  0  0  0
   17.0183    0.7500    0.0000 N   0  0  0  0  0  0  0  0  0  0  0  0
    7.9251    0.0000    0.0000 C   0  0  0  0  0  0  0  0  0  0  0  0
    7.9251   -1.5000    0.0000 O   0  0  0  0  0  0  0  0  0  0  0  0
    6.6260    0.7500    0.0000 O   0  0  0  0  0  0  0  0  0  0  0  0
  1  2  1  0
  2  3  1  0
  4  3  1  6
  4  5  1  0
  5  6  1  0
  6  7  1  6
  6  8  1  0
  8  9  2  0
  8 10  1  0
 10 11  1  0
 11 12  1  1
 12 13  1  0
 13 14  1  0
 14 15  1  0
 16 15  1  1
 16 17  1  0
 17 18  1  0
 18 19  1  1
 19 20  2  0
 19 21  1  0
  4 22  1  0
 22 23  2  0
 22 24  1  0
 24 25  1  0
 25 26  1  0
 28 27  1  1
 28 29  1  0
 29 30  1  0
 30 31  1  0
 31 32  1  0
 32 33  1  0
 33 34  2  0
 33 35  1  0
 28 36  1  0
 36 37  2  0
 36 38  1  0
 18 10  1  0
 16 11  1  0
M  END
$$$$
609761
     RDKit          2D

 15 15  0  0  0  0  0  0  0  0999 V2000
    5.0260   -1.2990    0.0000 C   0  0  0  0  0  0  0  0  0  0  0  0
    3.5260   -1.2990    0.0000 C   0  0  0  0  0  0  0  0  0  0  0  0
    2.7760    0.0000    0.0000 C   0  0  0  0  0  0  0  0  0  0  0  0
    1.2760    0.0000    0.0000 C   0  0  0  0  0  0  0  0  0  0  0  0
    0.3943    1.2135    0.0000 C   0  0  0  0  0  0  0  0  0  0  0  0
   -1.0323    0.7500    0.0000 N   0  0  0  0  0  0  0  0  0  0  0  0
   -2.2458    1.6317    0.0000 C   0  0  0  0  0  0  0  0  0  0  0  0
   -2.0890    3.1235    0.0000 C   0  0  0  0  0  0  0  0  0  0  0  0
   -3.3025    4.0051    0.0000 C   0  0  0  0  0  0  0  0  0  0  0  0
   -3.6161    1.0216    0.0000 C   0  0  0  0  0  0  0  0  0  0  0  0
   -3.7729   -0.4702    0.0000 O   0  0  0  0  0  0  0  0  0  0  0  0
   -4.8297    1.9033    0.0000 N   0  0  0  0  0  0  0  0  0  0  0  0
   -1.0323   -0.7500    0.0000 C   0  0  0  0  0  0  0  0  0  0  0  0
   -2.2458   -1.6317    0.0000 O   0  0  0  0  0  0  0  0  0  0  0  0
    0.3943   -1.2135    0.0000 C   0  0  0  0  0  0  0  0  0  0  0  0
  1  2  1  0
  2  3  1  0
  4  3  1  6
  4  5  1  0
  5  6  1  0
  6  7  1  0
  7  8  1  6
  8  9  1  0
  7 10  1  0
 10 11  2  0
 10 12  1  0
  6 13  1  0
 13 14  2  0
 13 15  1  0
 15  4  1  0
M  END
$$$$
421332
     RDKit          2D

 23 25  0  0  0  0  0  0  0  0999 V2000
    7.5000   -5.1962    0.0000 C   0  0  0  0  0  0  0  0  0  0  0  0
    6.0000   -5.1962    0.0000 C   0  0  0  0  0  0  0  0  0  0  0  0
    5.2500   -3.8971    0.0000 N   0  0  0  0  0  0  0  0  0  0  0  0
    6.0000   -2.5981    0.0000 C   0  0  0  0  0  0  0  0  0  0  0  0
    5.2500   -1.2990    0.0000 O   0  0  0  0  0  0  0  0  0  0  0  0
    7.5000   -2.5981    0.0000 C   0  0  0  0  0  0  0  0  0  0  0  0
    3.7500   -3.8971    0.0000 C   0  0  0  0  0  0  0  0  0  0  0  0
    3.0000   -5.1962    0.0000 C   0  0  0  0  0  0  0  0  0  0  0  0
    1.5000   -5.1962    0.0000 C   0  0  0  0  0  0  0  0  0  0  0  0
    0.7500   -3.8971    0.0000 C   0  0  0  0  0  0  0  0  0  0  0  0
    1.5000   -2.5981    0.0000 C   0  0  0  0  0  0  0  0  0  0  0  0
    3.0000   -2.5981    0.0000 C   0  0  0  0  0  0  0  0  0  0  0  0
    0.7500   -1.2990    0.0000 C   0  0  0  0  0  0  0  0  0  0  0  0
    1.5000    0.0000    0.0000 C   0  0  0  0  0  0  0  0  0  0  0  0
    0.7500    1.2990    0.0000 C   0  0  0  0  0  0  0  0  0  0  0  0
   -0.7500    1.2990    0.0000 N   0  0  0  0  0  0  0  0  0  0  0  0
   -1.5000    0.0000    0.0000 C   0  0  0  0  0  0  0  0  0  0  0  0
   -2.9672   -0.3119    0.0000 C   0  0  0  0  0  0  0  0  0  0  0  0
   -3.1240   -1.8037    0.0000 C   0  0  0  0  0  0  0  0  0  0  0  0
   -1.7537   -2.4138    0.0000 N   0  0  0  0  0  0  0  0  0  0  0  0
   -0.7500   -1.2990    0.0000 N   0  0  0  0  0  0  0  0  0  0  0  0
   -4.0819    0.6918    0.0000 C   0  0  0  0  0  0  0  0  0  0  0  0
   -5.1967    1.6955    0.0000 N   0  0  0  0  0  0  0  0  0  0  0  0
  1  2  1  0
  2  3  1  0
  3  4  1  0
  4  5  2  0
  4  6  1  0
  3  7  1  0
  7  8  2  0
  8  9  1  0
  9 10  2  0
 10 11  1  0
 11 12  2  0
 11 13  1  0
 13 14  2  0
 14 15  1  0
 15 16  2  0
 16 17  1  0
 17 18  2  0
 18 19  1  0
 19 20  2  0
 20 21  1  0
 18 22  1  0
 22 23  3  0
 12  7  1  0
 21 13  1  0
 21 17  1  0
M  END
$$$$
27251
     RDKit          2D

 18 18  0  0  0  0  0  0  0  0999 V2000
    7.5000   -0.0000    0.0000 C   0  0  0  0  0  0  0  0  0  0  0  0
    6.0000    0.0000    0.0000 C   0  0  0  0  0  0  0  0  0  0  0  0
    5.2500   -1.2990    0.0000 N   0  0  0  0  0  0  0  0  0  0  0  0
    6.0000   -2.5981    0.0000 C   0  0  0  0  0  0  0  0  0  0  0  0
    3.7500   -1.2990    0.0000 C   0  0  0  0  0  0  0  0  0  0  0  0
    3.0000   -2.5981    0.0000 O   0  0  0  0  0  0  0  0  0  0  0  0
    3.0000    0.0000    0.0000 O   0  0  0  0  0  0  0  0  0  0  0  0
    1.5000    0.0000    0.0000 C   0  0  0  0  0  0  0  0  0  0  0  0
    0.7500   -1.2990    0.0000 C   0  0  0  0  0  0  0  0  0  0  0  0
   -0.7500   -1.2990    0.0000 C   0  0  0  0  0  0  0  0  0  0  0  0
   -1.5000    0.0000    0.0000 C   0  0  0  0  0  0  0  0  0  0  0  0
   -0.7500    1.2990    0.0000 C   0  0  0  0  0  0  0  0  0  0  0  0
    0.7500    1.2990    0.0000 C   0  0  0  0  0  0  0  0  0  0  0  0
   -1.5000    2.5981    0.0000 C   0  0  0  0  0  0  0  0  0  0  0  0
   -0.7500    3.8971    0.0000 C   0  0  0  0  0  0  0  0  0  0  0  0
   -3.0000    2.5981    0.0000 N   0  0  0  0  0  0  0  0  0  0  0  0
   -3.7500    3.8971    0.0000 C   0  0  0  0  0  0  0  0  0  0  0  0
   -3.7500    1.2990    0.0000 C   0  0  0  0  0  0  0  0  0  0  0  0
  1  2  1  0
  2  3  1  0
  3  4  1  0
  3  5  1  0
  5  6  2  0
  5  7  1  0
  7  8  1  0
  8  9  2  0
  9 10  1  0
 10 11  2  0
 11 12  1  0
 12 13  2  0
 12 14  1  0
 14 15  1  1
 14 16  1  0
 16 17  1  0
 16 18  1  0
 13  8  1  0
M  END
$$$$
355897
     RDKit          2D

 28 27  0  0  0  0  0  0  0  0999 V2000
    7.5000   -0.0000    0.0000 C   0  0  0  0  0  0  0  0  0  0  0  0
    6.0000    0.0000    0.0000 C   0  0  0  0  0  0  0  0  0  0  0  0
    5.2500   -1.2990    0.0000 N   0  0  0  0  0  0  0  0  0  0  0  0
    6.0000   -2.5981    0.0000 C   0  0  0  0  0  0  0  0  0  0  0  0
    3.7500   -1.2990    0.0000 C   0  0  0  0  0  0  0  0  0  0  0  0
    3.0000   -2.5981    0.0000 O   0  0  0  0  0  0  0  0  0  0  0  0
    3.0000    0.0000    0.0000 O   0  0  0  0  0  0  0  0  0  0  0  0
    1.5000    0.0000    0.0000 C   0  0  0  0  0  0  0  0  0  0  0  0
    0.7500   -1.2990    0.0000 C   0  0  0  0  0  0  0  0  0  0  0  0
   -0.7500   -1.2990    0.0000 C   0  0  0  0  0  0  0  0  0  0  0  0
   -1.5000    0.0000    0.0000 C   0  0  0  0  0  0  0  0  0  0  0  0
   -0.7500    1.2990    0.0000 C   0  0  0  0  0  0  0  0  0  0  0  0
    0.7500    1.2990    0.0000 C   0  0  0  0  0  0  0  0  0  0  0  0
   -1.5000    2.5981    0.0000 C   0  0  0  0  0  0  0  0  0  0  0  0
   -0.7500    3.8971    0.0000 C   0  0  0  0  0  0  0  0  0  0  0  0
   -3.0000    2.5981    0.0000 N   0  0  0  0  0  0  0  0  0  0  0  0
   -3.7500    3.8971    0.0000 C   0  0  0  0  0  0  0  0  0  0  0  0
   -3.7500    1.2990    0.0000 C   0  0  0  0  0  0  0  0  0  0  0  0
   -0.0000    4.8971    0.0000 O   0  0  0  0  0  0  0  0  0  0  0  0
    0.0000    6.3971    0.0000 C   0  0  0  0  0  0  0  0  0  0  0  0
    1.2990    7.1471    0.0000 C   0  0  0  0  0  0  0  0  0  0  0  0
    1.2990    8.6471    0.0000 O   0  0  0  0  0  0  0  0  0  0  0  0
    2.5981    6.3971    0.0000 C   0  0  0  0  0  0  0  0  0  0  0  0
    2.5981    4.8971    0.0000 O   0  0  0  0  0  0  0  0  0  0  0  0
    3.8971    7.1471    0.0000 O   0  0  0  0  0  0  0  0  0  0  0  0
   -1.2990    7.1471    0.0000 C   0  0  0  0  0  0  0  0  0  0  0  0
   -1.2990    8.6471    0.0000 O   0  0  0  0  0  0  0  0  0  0  0  0
   -2.5981    6.3971    0.0000 O   0  0  0  0  0  0  0  0  0  0  0  0
  1  2  1  0
  2  3  1  0
  3  4  1  0
  3  5  1  0
  5  6  2  0
  5  7  1  0
  7  8  1  0
  8  9  2  0
  9 10  1  0
 10 11  2  0
 11 12  1  0
 12 13  2  0
 12 14  1  0
 14 15  1  1
 14 16  1  0
 16 17  1  0
 16 18  1  0
 19 20  1  0
 20 21  1  0
 21 22  1  0
 21 23  1  0
 23 24  2  0
 23 25  1  0
 20 26  1  0
 26 27  2  0
 26 28  1  0
 13  8  1  0
M  END
$$$$
427379
     RDKit          2D

 18 19  0  0  0  0  0  0  0  0999 V2000
    6.6172   -3.5004    0.0000 C   0  0  0  0  0  0  0  0  0  0  0  0
    5.4681   -2.5362    0.0000 C   0  0  0  0  0  0  0  0  0  0  0  0
    4.0586   -3.0492    0.0000 N   0  0  0  0  0  0  0  0  0  0  0  0
    3.7981   -4.5264    0.0000 C   0  0  0  0  0  0  0  0  0  0  0  0
    4.9472   -5.4906    0.0000 C   0  0  0  0  0  0  0  0  0  0  0  0
    2.9095   -2.0850    0.0000 C   0  0  0  0  0  0  0  0  0  0  0  0
    3.1700   -0.6078    0.0000 O   0  0  0  0  0  0  0  0  0  0  0  0
    1.5000   -2.5981    0.0000 C   0  0  0  0  0  0  0  0  0  0  0  0
    1.7605   -4.0753    0.0000 C   0  0  0  0  0  0  0  0  0  0  0  0
    0.3509   -3.5623    0.0000 C   0  0  0  0  0  0  0  0  0  0  0  0
   -1.1263   -3.8227    0.0000 C   0  0  0  0  0  0  0  0  0  0  0  0
   -1.6393   -5.2323    0.0000 N   0  0  0  0  0  0  0  0  0  0  0  0
    0.7500   -1.2990    0.0000 C   0  0  0  0  0  0  0  0  0  0  0  0
    1.5000    0.0000    0.0000 C   0  0  0  0  0  0  0  0  0  0  0  0
    0.7500    1.2990    0.0000 C   0  0  0  0  0  0  0  0  0  0  0  0
   -0.7500    1.2990    0.0000 C   0  0  0  0  0  0  0  0  0  0  0  0
   -1.5000    0.0000    0.0000 C   0  0  0  0  0  0  0  0  0  0  0  0
   -0.7500   -1.2990    0.0000 C   0  0  0  0  0  0  0  0  0  0  0  0
  1  2  1  0
  2  3  1  0
  3  4  1  0
  4  5  1  0
  3  6  1  0
  6  7  2  0
  6  8  1  0
  8  9  1  0
  9 10  1  0
 10 11  1  0
 11 12  1  0
  8 13  1  0
 13 14  2  0
 14 15  1  0
 15 16  2  0
 16 17  1  0
 17 18  2  0
 10  8  1  0
 18 13  1  0
M  END
$$$$
29569
     RDKit          2D

 14 14  0  0  0  0  0  0  0  0999 V2000
    6.0000   -2.5981    0.0000 C   0  0  0  0  0  0  0  0  0  0  0  0
    5.2500   -1.2990    0.0000 C   0  0  0  0  0  0  0  0  0  0  0  0
    3.7500   -1.2990    0.0000 N   0  0  0  0  0  0  0  0  0  0  0  0
    3.0000   -2.5981    0.0000 C   0  0  0  0  0  0  0  0  0  0  0  0
    3.7500   -3.8971    0.0000 C   0  0  0  0  0  0  0  0  0  0  0  0
    3.0000    0.0000    0.0000 C   0  0  0  0  0  0  0  0  0  0  0  0
    3.7500    1.2990    0.0000 O   0  0  0  0  0  0  0  0  0  0  0  0
    1.5000    0.0000    0.0000 N   0  0  0  0  0  0  0  0  0  0  0  0
    0.7500   -1.2990    0.0000 C   0  0  0  0  0  0  0  0  0  0  0  0
   -0.7500   -1.2990    0.0000 C   0  0  0  0  0  0  0  0  0  0  0  0
   -1.5000    0.0000    0.0000 N   0  0  0  0  0  0  0  0  0  0  0  0
   -3.0000    0.0000    0.0000 C   0  0  0  0  0  0  0  0  0  0  0  0
   -0.7500    1.2990    0.0000 C   0  0  0  0  0  0  0  0  0  0  0  0
    0.7500    1.2990    0.0000 C   0  0  0  0  0  0  0  0  0  0  0  0
  1  2  1  0
  2  3  1  0
  3  4  1  0
  4  5  1  0
  3  6  1  0
  6  7  2  0
  6  8  1  0
  8  9  1  0
  9 10  1  0
 10 11  1  0
 11 12  1  0
 11 13  1  0
 13 14  1  0
 14  8  1  0
M  END
$$$$
86784
     RDKit          2D

 27 26  0  0  0  0  0  0  0  0999 V2000
    6.0000   -2.5981    0.0000 C   0  0  0  0  0  0  0  0  0  0  0  0
    5.2500   -1.2990    0.0000 C   0  0  0  0  0  0  0  0  0  0  0  0
    3.7500   -1.2990    0.0000 N   0  0  0  0  0  0  0  0  0  0  0  0
    3.0000   -2.5981    0.0000 C   0  0  0  0  0  0  0  0  0  0  0  0
    3.7500   -3.8971    0.0000 C   0  0  0  0  0  0  0  0  0  0  0  0
    3.0000    0.0000    0.0000 C   0  0  0  0  0  0  0  0  0  0  0  0
    3.7500    1.2990    0.0000 O   0  0  0  0  0  0  0  0  0  0  0  0
    1.5000    0.0000    0.0000 N   0  0  0  0  0  0  0  0  0  0  0  0
    0.7500   -1.2990    0.0000 C   0  0  0  0  0  0  0  0  0  0  0  0
   -0.7500   -1.2990    0.0000 C   0  0  0  0  0  0  0  0  0  0  0  0
   -1.5000    0.0000    0.0000 N   0  0  0  0  0  0  0  0  0  0  0  0
   -3.0000    0.0000    0.0000 C   0  0  0  0  0  0  0  0  0  0  0  0
   -0.7500    1.2990    0.0000 C   0  0  0  0  0  0  0  0  0  0  0  0
    0.7500    1.2990    0.0000 C   0  0  0  0  0  0  0  0  0  0  0  0
   -2.5981    4.1471    0.0000 O   0  0  0  0  0  0  0  0  0  0  0  0
   -1.2990    4.8971    0.0000 C   0  0  0  0  0  0  0  0  0  0  0  0
   -1.2990    6.3971    0.0000 O   0  0  0  0  0  0  0  0  0  0  0  0
    0.0000    4.1471    0.0000 C   0  0  0  0  0  0  0  0  0  0  0  0
    1.2990    4.8971    0.0000 C   0  0  0  0  0  0  0  0  0  0  0  0
    0.5490    6.1962    0.0000 O   0  0  0  0  0  0  0  0  0  0  0  0
    2.5981    5.6471    0.0000 C   0  0  0  0  0  0  0  0  0  0  0  0
    2.5981    7.1471    0.0000 C   0  0  0  0  0  0  0  0  0  0  0  0
    1.2990    7.8971    0.0000 O   0  0  0  0  0  0  0  0  0  0  0  0
    3.8971    7.8971    0.0000 O   0  0  0  0  0  0  0  0  0  0  0  0
    2.0490    3.5981    0.0000 C   0  0  0  0  0  0  0  0  0  0  0  0
    1.2990    2.2990    0.0000 O   0  0  0  0  0  0  0  0  0  0  0  0
    3.5490    3.5981    0.0000 O   0  0  0  0  0  0  0  0  0  0  0  0
  1  2  1  0
  2  3  1  0
  3  4  1  0
  4  5  1  0
  3  6  1  0
  6  7  2  0
  6  8  1  0
  8  9  1  0
  9 10  1  0
 10 11  1  0
 11 12  1  0
 11 13  1  0
 13 14  1  0
 15 16  1  0
 16 17  2  0
 16 18  1  0
 18 19  1  0
 19 20  1  0
 19 21  1  0
 21 22  1  0
 22 23  2  0
 22 24  1  0
 19 25  1  0
 25 26  2  0
 25 27  1  0
 14  8  1  0
M  END
$$$$
164035
     RDKit          2D

 18 19  0  0  0  0  0  0  0  0999 V2000
    6.6172   -3.5004    0.0000 C   0  0  0  0  0  0  0  0  0  0  0  0
    5.4681   -2.5362    0.0000 C   0  0  0  0  0  0  0  0  0  0  0  0
    4.0586   -3.0492    0.0000 N   0  0  0  0  0  0  0  0  0  0  0  0
    3.7981   -4.5264    0.0000 C   0  0  0  0  0  0  0  0  0  0  0  0
    4.9472   -5.4906    0.0000 C   0  0  0  0  0  0  0  0  0  0  0  0
    2.9095   -2.0850    0.0000 C   0  0  0  0  0  0  0  0  0  0  0  0
    3.1700   -0.6078    0.0000 O   0  0  0  0  0  0  0  0  0  0  0  0
    1.5000   -2.5981    0.0000 C   0  0  0  0  0  0  0  0  0  0  0  0
    1.7605   -4.0753    0.0000 C   0  0  0  0  0  0  0  0  0  0  0  0
    0.3509   -3.5623    0.0000 C   0  0  0  0  0  0  0  0  0  0  0  0
   -1.1263   -3.8227    0.0000 C   0  0  0  0  0  0  0  0  0  0  0  0
   -1.6393   -5.2323    0.0000 N   0  0  0  0  0  0  0  0  0  0  0  0
    0.7500   -1.2990    0.0000 C   0  0  0  0  0  0  0  0  0  0  0  0
    1.5000    0.0000    0.0000 C   0  0  0  0  0  0  0  0  0  0  0  0
    0.7500    1.2990    0.0000 C   0  0  0  0  0  0  0  0  0  0  0  0
   -0.7500    1.2990    0.0000 C   0  0  0  0  0  0  0  0  0  0  0  0
   -1.5000    0.0000    0.0000 C   0  0  0  0  0  0  0  0  0  0  0  0
   -0.7500   -1.2990    0.0000 C   0  0  0  0  0  0  0  0  0  0  0  0
  1  2  1  0
  2  3  1  0
  3  4  1  0
  4  5  1  0
  3  6  1  0
  6  7  2  0
  8  6  1  1
  8  9  1  0
  9 10  1  0
 10 11  1  1
 11 12  1  0
  8 13  1  0
 13 14  2  0
 14 15  1  0
 15 16  2  0
 16 17  1  0
 17 18  2  0
 10  8  1  0
 18 13  1  0
M  END
$$$$
92412
     RDKit          2D

 22 22  0  0  0  0  0  0  0  0999 V2000
    8.2500   -3.8971    0.0000 C   0  0  0  0  0  0  0  0  0  0  0  0
    7.5000   -2.5981    0.0000 C   0  0  0  0  0  0  0  0  0  0  0  0
    6.0000   -2.5981    0.0000 N   0  0  0  0  0  0  0  0  0  0  0  0
    5.2500   -3.8971    0.0000 C   0  0  0  0  0  0  0  0  0  0  0  0
    6.0000   -5.1962    0.0000 C   0  0  0  0  0  0  0  0  0  0  0  0
    5.2500   -1.2990    0.0000 C   0  0  0  0  0  0  0  0  0  0  0  0
    6.0000    0.0000    0.0000 O   0  0  0  0  0  0  0  0  0  0  0  0
    3.7500   -1.2990    0.0000 C   0  0  0  0  0  0  0  0  0  0  0  0
    3.0000    0.0000    0.0000 C   0  0  0  0  0  0  0  0  0  0  0  0
    1.5000    0.0000    0.0000 C   0  0  0  0  0  0  0  0  0  0  0  0
    0.7500   -1.2990    0.0000 C   0  0  0  0  0  0  0  0  0  0  0  0
   -0.7500   -1.2990    0.0000 C   0  0  0  0  0  0  0  0  0  0  0  0
   -1.5000   -2.5981    0.0000 O   0  0  0  0  0  0  0  0  0  0  0  0
   -1.5000    0.0000    0.0000 C   0  0  0  0  0  0  0  0  0  0  0  0
   -3.0000    0.0000    0.0000 O   0  0  0  0  0  0  0  0  0  0  0  0
   -0.7500    1.2990    0.0000 C   0  0  0  0  0  0  0  0  0  0  0  0
    0.7500    1.2990    0.0000 C   0  0  0  0  0  0  0  0  0  0  0  0
   -1.5000    2.5981    0.0000 N   0  0  0  0  0  4  0  0  0  0  0  0
   -3.0000    2.5981    0.0000 O   0  0  0  0  0  0  0  0  0  0  0  0
   -0.7500    3.8971    0.0000 O   0  0  0  0  0  1  0  0  0  0  0  0
    3.0000   -2.5981    0.0000 C   0  0  0  0  0  0  0  0  0  0  0  0
    2.2500   -3.8971    0.0000 N   0  0  0  0  0  0  0  0  0  0  0  0
  1  2  1  0
  2  3  1  0
  3  4  1  0
  4  5  1  0
  3  6  1  0
  6  7  2  0
  6  8  1  0
  8  9  2  0
  9 10  1  0
 10 11  2  0
 11 12  1  0
 12 13  1  0
 12 14  2  0
 14 15  1  0
 14 16  1  0
 16 17  2  0
 16 18  1  0
 18 19  2  0
 18 20  1  0
  8 21  1  0
 21 22  3  0
 17 10  1  0
M  CHG  2  18   1  20  -1
M  END
$$$$
94571
     RDKit          2D

 16 15  0  0  0  0  0  0  0  0999 V2000
    0.0000    0.0000    0.0000 C   0  0  0  0  0  0  0  0  0  0  0  0
    1.2990    0.7500    0.0000 C   0  0  0  0  0  0  0  0  0  0  0  0
    2.5981   -0.0000    0.0000 N   0  0  0  0  0  0  0  0  0  0  0  0
    3.8971    0.7500    0.0000 C   0  0  0  0  0  0  0  0  0  0  0  0
    5.1962   -0.0000    0.0000 C   0  0  0  0  0  0  0  0  0  0  0  0
    2.5981   -1.5000    0.0000 C   0  0  0  0  0  0  0  0  0  0  0  0
    3.8971   -2.2500    0.0000 S   0  0  0  0  0  0  0  0  0  0  0  0
    1.2990   -2.2500    0.0000 S   0  0  0  0  0  0  0  0  0  0  0  0
    1.2990   -3.7500    0.0000 S   0  0  0  0  0  0  0  0  0  0  0  0
    0.0000   -4.5000    0.0000 C   0  0  0  0  0  0  0  0  0  0  0  0
   -1.2990   -3.7500    0.0000 S   0  0  0  0  0  0  0  0  0  0  0  0
    0.0000   -6.0000    0.0000 N   0  0  0  0  0  0  0  0  0  0  0  0
   -1.2990   -6.7500    0.0000 C   0  0  0  0  0  0  0  0  0  0  0  0
   -1.2990   -8.2500    0.0000 C   0  0  0  0  0  0  0  0  0  0  0  0
    1.2990   -6.7500    0.0000 C   0  0  0  0  0  0  0  0  0  0  0  0
    1.2990   -8.2500    0.0000 C   0  0  0  0  0  0  0  0  0  0  0  0
  1  2  1  0
  2  3  1  0
  3  4  1  0
  4  5  1  0
  3  6  1  0
  6  7  2  0
  6  8  1  0
  8  9  1  0
  9 10  1  0
 10 11  2  0
 10 12  1  0
 12 13  1  0
 13 14  1  0
 12 15  1  0
 15 16  1  0
M  END
$$$$
668616
     RDKit          2D

 15 15  0  0  0  0  0  0  0  0999 V2000
    3.0000   -5.1962    0.0000 C   0  0  0  0  0  0  0  0  0  0  0  0
    3.7500   -3.8971    0.0000 C   0  0  0  0  0  0  0  0  0  0  0  0
    3.0000   -2.5981    0.0000 N   0  0  0  0  0  0  0  0  0  0  0  0
    1.5000   -2.5981    0.0000 C   0  0  0  0  0  0  0  0  0  0  0  0
    0.7500   -3.8971    0.0000 C   0  0  0  0  0  0  0  0  0  0  0  0
    3.7500   -1.2990    0.0000 C   0  0  0  0  0  0  0  0  0  0  0  0
    5.2500   -1.2990    0.0000 C   0  0  0  0  0  0  0  0  0  0  0  0
    3.0000    0.0000    0.0000 C   0  0  0  0  0  0  0  0  0  0  0  0
    3.7500    1.2990    0.0000 O   0  0  0  0  0  0  0  0  0  0  0  0
    1.5000    0.0000    0.0000 C   0  0  0  0  0  0  0  0  0  0  0  0
    0.7500   -1.2990    0.0000 C   0  0  0  0  0  0  0  0  0  0  0  0
   -0.7500   -1.2990    0.0000 C   0  0  0  0  0  0  0  0  0  0  0  0
   -1.5000    0.0000    0.0000 C   0  0  0  0  0  0  0  0  0  0  0  0
   -0.7500    1.2990    0.0000 C   0  0  0  0  0  0  0  0  0  0  0  0
    0.7500    1.2990    0.0000 C   0  0  0  0  0  0  0  0  0  0  0  0
  1  2  1  0
  2  3  1  0
  3  4  1  0
  4  5  1  0
  3  6  1  0
  6  7  1  0
  6  8  1  0
  8  9  2  0
  8 10  1  0
 10 11  2  0
 11 12  1  0
 12 13  2  0
 13 14  1  0
 14 15  2  0
 15 10  1  0
M  END
$$$$
213639
     RDKit          2D

 22 24  0  0  0  0  0  0  0  0999 V2000
    7.5000   -5.1962    0.0000 C   0  0  0  0  0  0  0  0  0  0  0  0
    6.0000   -5.1962    0.0000 C   0  0  0  0  0  0  0  0  0  0  0  0
    5.2500   -3.8971    0.0000 N   0  0  0  0  0  0  0  0  0  0  0  0
    6.0000   -2.5981    0.0000 C   0  0  0  0  0  0  0  0  0  0  0  0
    7.5000   -2.5981    0.0000 C   0  0  0  0  0  0  0  0  0  0  0  0
    3.7500   -3.8971    0.0000 C   0  0  0  0  0  0  0  0  0  0  0  0
    3.0000   -5.1962    0.0000 C   0  0  0  0  0  0  0  0  0  0  0  0
    3.0000   -2.5981    0.0000 C   0  0  0  0  0  0  0  0  0  0  0  0
    1.5000   -2.5981    0.0000 N   0  0  0  0  0  0  0  0  0  0  0  0
    0.7500   -1.2990    0.0000 C   0  0  0  0  0  0  0  0  0  0  0  0
    1.5000    0.0000    0.0000 C   0  0  0  0  0  0  0  0  0  0  0  0
    0.7500    1.2990    0.0000 C   0  0  0  0  0  0  0  0  0  0  0  0
   -0.7500    1.2990    0.0000 C   0  0  0  0  0  0  0  0  0  0  0  0
   -1.5000    0.0000    0.0000 C   0  0  0  0  0  0  0  0  0  0  0  0
   -0.7500   -1.2990    0.0000 C   0  0  0  0  0  0  0  0  0  0  0  0
   -1.5000   -2.5981    0.0000 S   0  0  0  0  0  0  0  0  0  0  0  0
   -0.7500   -3.8971    0.0000 C   0  0  0  0  0  0  0  0  0  0  0  0
   -1.5000   -5.1962    0.0000 C   0  0  0  0  0  0  0  0  0  0  0  0
   -0.7500   -6.4952    0.0000 C   0  0  0  0  0  0  0  0  0  0  0  0
    0.7500   -6.4952    0.0000 C   0  0  0  0  0  0  0  0  0  0  0  0
    1.5000   -5.1962    0.0000 C   0  0  0  0  0  0  0  0  0  0  0  0
    0.7500   -3.8971    0.0000 C   0  0  0  0  0  0  0  0  0  0  0  0
  1  2  1  0
  2  3  1  0
  3  4  1  0
  4  5  1  0
  3  6  1  0
  6  7  1  0
  6  8  1  0
  8  9  1  0
  9 10  1  0
 10 11  2  0
 11 12  1  0
 12 13  2  0
 13 14  1  0
 14 15  2  0
 15 16  1  0
 16 17  1  0
 17 18  2  0
 18 19  1  0
 19 20  2  0
 20 21  1  0
 21 22  2  0
 22  9  1  0
 15 10  1  0
 22 17  1  0
M  END
$$$$
229058
     RDKit          2D

 26 27  0  0  0  0  0  0  0  0999 V2000
   -3.6962  -13.0981    0.0000 C   0  0  0  0  0  0  0  0  0  0  0  0
   -2.3971  -12.3481    0.0000 C   0  0  0  0  0  0  0  0  0  0  0  0
   -2.3971  -10.8481    0.0000 N   0  0  0  0  0  0  0  0  0  0  0  0
   -3.6962  -10.0981    0.0000 C   0  0  0  0  0  0  0  0  0  0  0  0
   -4.9952  -10.8481    0.0000 C   0  0  0  0  0  0  0  0  0  0  0  0
   -1.0981  -10.0981    0.0000 C   0  0  0  0  0  0  0  0  0  0  0  0
   -1.0981   -8.5981    0.0000 C   0  0  0  0  0  0  0  0  0  0  0  0
   -1.0981   -7.0981    0.0000 C   0  0  0  0  0  0  0  0  0  0  0  0
   -1.0981   -5.5981    0.0000 C   0  0  0  0  0  0  0  0  0  0  0  0
    0.2010   -4.8481    0.0000 O   0  0  0  0  0  0  0  0  0  0  0  0
    0.2010   -3.3481    0.0000 C   0  0  0  0  0  0  0  0  0  0  0  0
   -1.0981   -2.5981    0.0000 O   0  0  0  0  0  0  0  0  0  0  0  0
    1.5000   -2.5981    0.0000 C   0  0  0  0  0  0  0  0  0  0  0  0
    2.7990   -1.8481    0.0000 O   0  0  0  0  0  0  0  0  0  0  0  0
    0.7500   -1.2990    0.0000 C   0  0  0  0  0  0  0  0  0  0  0  0
    1.5000    0.0000    0.0000 C   0  0  0  0  0  0  0  0  0  0  0  0
    0.7500    1.2990    0.0000 C   0  0  0  0  0  0  0  0  0  0  0  0
   -0.7500    1.2990    0.0000 C   0  0  0  0  0  0  0  0  0  0  0  0
   -1.5000    0.0000    0.0000 C   0  0  0  0  0  0  0  0  0  0  0  0
   -0.7500   -1.2990    0.0000 C   0  0  0  0  0  0  0  0  0  0  0  0
    2.2500   -3.8971    0.0000 C   0  0  0  0  0  0  0  0  0  0  0  0
    1.5000   -5.1962    0.0000 C   0  0  0  0  0  0  0  0  0  0  0  0
    2.2500   -6.4952    0.0000 C   0  0  0  0  0  0  0  0  0  0  0  0
    3.7500   -6.4952    0.0000 C   0  0  0  0  0  0  0  0  0  0  0  0
    4.5000   -5.1962    0.0000 C   0  0  0  0  0  0  0  0  0  0  0  0
    3.7500   -3.8971    0.0000 C   0  0  0  0  0  0  0  0  0  0  0  0
  1  2  1  0
  2  3  1  0
  3  4  1  0
  4  5  1  0
  3  6  1  0
  6  7  1  0
  7  8  3  0
  8  9  1  0
  9 10  1  0
 10 11  1  0
 11 12  2  0
 11 13  1  0
 13 14  1  0
 13 15  1  0
 15 16  1  0
 16 17  1  0
 17 18  1  0
 18 19  1  0
 19 20  1  0
 13 21  1  0
 21 22  2  0
 22 23  1  0
 23 24  2  0
 24 25  1  0
 25 26  2  0
 20 15  1  0
 26 21  1  0
M  END
$$$$
6723
     RDKit          2D

 17 17  0  0  0  0  0  0  0  0999 V2000
    8.2500   -3.8971    0.0000 C   0  0  0  0  0  0  0  0  0  0  0  0
    7.5000   -2.5981    0.0000 C   0  0  0  0  0  0  0  0  0  0  0  0
    6.0000   -2.5981    0.0000 N   0  0  0  0  0  0  0  0  0  0  0  0
    5.2500   -3.8971    0.0000 C   0  0  0  0  0  0  0  0  0  0  0  0
    6.0000   -5.1962    0.0000 C   0  0  0  0  0  0  0  0  0  0  0  0
    5.2500   -1.2990    0.0000 C   0  0  0  0  0  0  0  0  0  0  0  0
    3.7500   -1.2990    0.0000 C   0  0  0  0  0  0  0  0  0  0  0  0
    3.0000   -2.5981    0.0000 O   0  0  0  0  0  0  0  0  0  0  0  0
    3.0000    0.0000    0.0000 N   0  0  0  0  0  0  0  0  0  0  0  0
    1.5000    0.0000    0.0000 C   0  0  0  0  0  0  0  0  0  0  0  0
    0.7500   -1.2990    0.0000 C   0  0  0  0  0  0  0  0  0  0  0  0
    1.5000   -2.5981    0.0000 C   0  0  0  0  0  0  0  0  0  0  0  0
   -0.7500   -1.2990    0.0000 C   0  0  0  0  0  0  0  0  0  0  0  0
   -1.5000    0.0000    0.0000 C   0  0  0  0  0  0  0  0  0  0  0  0
   -0.7500    1.2990    0.0000 C   0  0  0  0  0  0  0  0  0  0  0  0
    0.7500    1.2990    0.0000 C   0  0  0  0  0  0  0  0  0  0  0  0
    1.5000    2.5981    0.0000 C   0  0  0  0  0  0  0  0  0  0  0  0
  1  2  1  0
  2  3  1  0
  3  4  1  0
  4  5  1  0
  3  6  1  0
  6  7  1  0
  7  8  2  0
  7  9  1  0
  9 10  1  0
 10 11  2  0
 11 12  1  0
 11 13  1  0
 13 14  2  0
 14 15  1  0
 15 16  2  0
 16 17  1  0
 16 10  1  0
M  END
$$$$
29097
     RDKit          2D

 25 27  0  0  0  0  0  0  0  0999 V2000
    5.2500   -9.0933    0.0000 C   0  0  0  0  0  0  0  0  0  0  0  0
    6.0000   -7.7942    0.0000 C   0  0  0  0  0  0  0  0  0  0  0  0
    5.2500   -6.4952    0.0000 N   0  0  0  0  0  0  0  0  0  0  0  0
    3.7500   -6.4952    0.0000 C   0  0  0  0  0  0  0  0  0  0  0  0
    3.0000   -7.7942    0.0000 C   0  0  0  0  0  0  0  0  0  0  0  0
    6.0000   -5.1962    0.0000 C   0  0  0  0  0  0  0  0  0  0  0  0
    5.2500   -3.8971    0.0000 C   0  0  0  0  0  0  0  0  0  0  0  0
    3.7500   -3.8971    0.0000 C   0  0  0  0  0  0  0  0  0  0  0  0
    3.0000   -2.5981    0.0000 C   0  0  0  0  0  0  0  0  0  0  0  0
    1.5000   -2.5981    0.0000 N   0  0  0  0  0  0  0  0  0  0  0  0
    0.7500   -1.2990    0.0000 C   0  0  0  0  0  0  0  0  0  0  0  0
    1.5000    0.0000    0.0000 C   0  0  0  0  0  0  0  0  0  0  0  0
    0.7500    1.2990    0.0000 C   0  0  0  0  0  0  0  0  0  0  0  0
   -0.7500    1.2990    0.0000 N   0  0  0  0  0  0  0  0  0  0  0  0
   -1.5000    0.0000    0.0000 C   0  0  0  0  0  0  0  0  0  0  0  0
   -3.0000    0.0000    0.0000 C   0  0  0  0  0  0  0  0  0  0  0  0
   -3.7500   -1.2990    0.0000 C   0  0  0  0  0  0  0  0  0  0  0  0
   -5.2500   -1.2990    0.0000 Cl  0  0  0  0  0  0  0  0  0  0  0  0
   -3.0000   -2.5981    0.0000 C   0  0  0  0  0  0  0  0  0  0  0  0
   -1.5000   -2.5981    0.0000 C   0  0  0  0  0  0  0  0  0  0  0  0
   -0.7500   -1.2990    0.0000 C   0  0  0  0  0  0  0  0  0  0  0  0
    3.7500   -1.2990    0.0000 C   0  0  0  0  0  0  0  0  0  0  0  0
    5.2500   -1.2990    0.0000 C   0  0  0  0  0  0  0  0  0  0  0  0
    6.0000   -2.5981    0.0000 C   0  0  0  0  0  0  0  0  0  0  0  0
    7.5000   -2.5981    0.0000 O   0  0  0  0  0  0  0  0  0  0  0  0
  1  2  1  0
  2  3  1  0
  3  4  1  0
  4  5  1  0
  3  6  1  0
  6  7  1  0
  7  8  2  0
  8  9  1  0
  9 10  1  0
 10 11  1  0
 11 12  2  0
 12 13  1  0
 13 14  2  0
 14 15  1  0
 15 16  2  0
 16 17  1  0
 17 18  1  0
 17 19  2  0
 19 20  1  0
 20 21  2  0
  9 22  2  0
 22 23  1  0
 23 24  2  0
 24 25  1  0
 24  7  1  0
 21 11  1  0
 21 15  1  0
M  END
$$$$
6579
     RDKit          2D

 22 23  0  0  0  0  0  0  0  0999 V2000
    3.7500   -9.0933    0.0000 C   0  0  0  0  0  0  0  0  0  0  0  0
    3.0000   -7.7942    0.0000 C   0  0  0  0  0  0  0  0  0  0  0  0
    3.7500   -6.4952    0.0000 N   0  0  0  0  0  0  0  0  0  0  0  0
    5.2500   -6.4952    0.0000 C   0  0  0  0  0  0  0  0  0  0  0  0
    6.0000   -7.7942    0.0000 C   0  0  0  0  0  0  0  0  0  0  0  0
    3.0000   -5.1962    0.0000 C   0  0  0  0  0  0  0  0  0  0  0  0
    3.7500   -3.8971    0.0000 C   0  0  0  0  0  0  0  0  0  0  0  0
    3.0000   -2.5981    0.0000 C   0  0  0  0  0  0  0  0  0  0  0  0
    3.7500   -1.2990    0.0000 C   0  0  0  0  0  0  0  0  0  0  0  0
    5.2500   -1.2990    0.0000 C   0  0  0  0  0  0  0  0  0  0  0  0
    3.0000    0.0000    0.0000 N   0  0  0  0  0  0  0  0  0  0  0  0
    1.5000    0.0000    0.0000 C   0  0  0  0  0  0  0  0  0  0  0  0
    0.7500   -1.2990    0.0000 C   0  0  0  0  0  0  0  0  0  0  0  0
   -0.7500   -1.2990    0.0000 C   0  0  0  0  0  0  0  0  0  0  0  0
   -1.5000    0.0000    0.0000 N   0  0  0  0  0  0  0  0  0  0  0  0
   -0.7500    1.2990    0.0000 C   0  0  0  0  0  0  0  0  0  0  0  0
   -1.5000    2.5981    0.0000 C   0  0  0  0  0  0  0  0  0  0  0  0
   -0.7500    3.8971    0.0000 C   0  0  0  0  0  0  0  0  0  0  0  0
   -1.5000    5.1962    0.0000 Cl  0  0  0  0  0  0  0  0  0  0  0  0
    0.7500    3.8971    0.0000 C   0  0  0  0  0  0  0  0  0  0  0  0
    1.5000    2.5981    0.0000 C   0  0  0  0  0  0  0  0  0  0  0  0
    0.7500    1.2990    0.0000 C   0  0  0  0  0  0  0  0  0  0  0  0
  1  2  1  0
  2  3  1  0
  3  4  1  0
  4  5  1  0
  3  6  1  0
  6  7  1  0
  7  8  1  0
  8  9  1  0
  9 10  1  0
  9 11  1  0
 11 12  1  0
 12 13  2  0
 13 14  1  0
 14 15  2  0
 15 16  1  0
 16 17  2  0
 17 18  1  0
 18 19  1  0
 18 20  2  0
 20 21  1  0
 21 22  2  0
 22 12  1  0
 22 16  1  0
M  END
$$$$
270724
     RDKit          2D

 27 27  0  0  0  0  0  0  0  0999 V2000
    3.7500   -9.0933    0.0000 C   0  0  0  0  0  0  0  0  0  0  0  0
    3.0000   -7.7942    0.0000 C   0  0  0  0  0  0  0  0  0  0  0  0
    3.7500   -6.4952    0.0000 N   0  0  0  0  0  0  0  0  0  0  0  0
    5.2500   -6.4952    0.0000 C   0  0  0  0  0  0  0  0  0  0  0  0
    6.0000   -7.7942    0.0000 C   0  0  0  0  0  0  0  0  0  0  0  0
    3.0000   -5.1962    0.0000 C   0  0  0  0  0  0  0  0  0  0  0  0
    3.7500   -3.8971    0.0000 C   0  0  0  0  0  0  0  0  0  0  0  0
    3.0000   -2.5981    0.0000 C   0  0  0  0  0  0  0  0  0  0  0  0
    3.7500   -1.2990    0.0000 C   0  0  0  0  0  0  0  0  0  0  0  0
    5.2500   -1.2990    0.0000 C   0  0  0  0  0  0  0  0  0  0  0  0
    3.0000    0.0000    0.0000 N   0  0  0  0  0  0  0  0  0  0  0  0
    1.5000    0.0000    0.0000 C   0  0  0  0  0  0  0  0  0  0  0  0
    0.7500   -1.2990    0.0000 C   0  0  0  0  0  0  0  0  0  0  0  0
   -0.7500   -1.2990    0.0000 C   0  0  0  0  0  0  0  0  0  0  0  0
   -1.5000    0.0000    0.0000 N   0  0  0  0  0  0  0  0  0  0  0  0
   -0.7500    1.2990    0.0000 C   0  0  0  0  0  0  0  0  0  0  0  0
   -1.5000    2.5981    0.0000 C   0  0  0  0  0  0  0  0  0  0  0  0
   -0.7500    3.8971    0.0000 C   0  0  0  0  0  0  0  0  0  0  0  0
   -1.5000    5.1962    0.0000 Cl  0  0  0  0  0  0  0  0  0  0  0  0
    0.7500    3.8971    0.0000 C   0  0  0  0  0  0  0  0  0  0  0  0
    1.5000    2.5981    0.0000 C   0  0  0  0  0  0  0  0  0  0  0  0
    0.7500    1.2990    0.0000 C   0  0  0  0  0  0  0  0  0  0  0  0
    7.0000    0.0000    0.0000 O   0  0  0  0  0  0  0  0  0  0  0  0
    8.2990    0.7500    0.0000 P   0  0  0  0  0  0  0  0  0  0  0  0
    9.5981    1.5000    0.0000 O   0  0  0  0  0  0  0  0  0  0  0  0
    7.5490    2.0490    0.0000 O   0  0  0  0  0  0  0  0  0  0  0  0
    9.0490   -0.5490    0.0000 O   0  0  0  0  0  0  0  0  0  0  0  0
  1  2  1  0
  2  3  1  0
  3  4  1  0
  4  5  1  0
  3  6  1  0
  6  7  1  0
  7  8  1  0
  8  9  1  0
  9 10  1  0
  9 11  1  0
 11 12  1  0
 12 13  2  0
 13 14  1  0
 14 15  2  0
 15 16  1  0
 16 17  2  0
 17 18  1  0
 18 19  1  0
 18 20  2  0
 20 21  1  0
 21 22  2  0
 23 24  1  0
 24 25  2  0
 24 26  1  0
 24 27  1  0
 22 12  1  0
 22 16  1  0
M  END
$$$$
95929
     RDKit          2D

 27 29  0  0  0  0  0  0  0  0999 V2000
   -6.9567    1.3963    0.0000 C   0  0  0  0  0  0  0  0  0  0  0  0
   -5.4943    1.0625    0.0000 C   0  0  0  0  0  0  0  0  0  0  0  0
   -5.0522   -0.3709    0.0000 N   0  0  0  0  0  0  0  0  0  0  0  0
   -6.0724   -1.4704    0.0000 C   0  0  0  0  0  0  0  0  0  0  0  0
   -7.5348   -1.1367    0.0000 C   0  0  0  0  0  0  0  0  0  0  0  0
   -3.5898   -0.7046    0.0000 C   0  0  0  0  0  0  0  0  0  0  0  0
   -3.1476   -2.1380    0.0000 C   0  0  0  0  0  0  0  0  0  0  0  0
   -1.6852   -2.4718    0.0000 N   0  0  0  0  0  0  0  0  0  0  0  0
   -1.3515   -3.9342    0.0000 C   0  0  0  0  0  0  0  0  0  0  0  0
   -2.5242   -4.8694    0.0000 O   0  0  0  0  0  0  0  0  0  0  0  0
   -0.0000   -4.5850    0.0000 C   0  0  0  0  0  0  0  0  0  0  0  0
    1.3515   -3.9342    0.0000 N   0  0  0  0  0  0  0  0  0  0  0  0
    1.6852   -2.4718    0.0000 C   0  0  0  0  0  0  0  0  0  0  0  0
    3.1476   -2.1380    0.0000 C   0  0  0  0  0  0  0  0  0  0  0  0
    4.1679   -3.2376    0.0000 C   0  0  0  0  0  0  0  0  0  0  0  0
    5.6303   -2.9038    0.0000 C   0  0  0  0  0  0  0  0  0  0  0  0
    6.0724   -1.4704    0.0000 C   0  0  0  0  0  0  0  0  0  0  0  0
    5.0522   -0.3709    0.0000 C   0  0  0  0  0  0  0  0  0  0  0  0
    3.5898   -0.7046    0.0000 C   0  0  0  0  0  0  0  0  0  0  0  0
    2.5695    0.3949    0.0000 F   0  0  0  0  0  0  0  0  0  0  0  0
    0.7500   -1.2990    0.0000 C   0  0  0  0  0  0  0  0  0  0  0  0
    1.5000    0.0000    0.0000 C   0  0  0  0  0  0  0  0  0  0  0  0
    0.7500    1.2990    0.0000 C   0  0  0  0  0  0  0  0  0  0  0  0
    1.5000    2.5981    0.0000 Cl  0  0  0  0  0  0  0  0  0  0  0  0
   -0.7500    1.2990    0.0000 C   0  0  0  0  0  0  0  0  0  0  0  0
   -1.5000    0.0000    0.0000 C   0  0  0  0  0  0  0  0  0  0  0  0
   -0.7500   -1.2990    0.0000 C   0  0  0  0  0  0  0  0  0  0  0  0
  1  2  1  0
  2  3  1  0
  3  4  1  0
  4  5  1  0
  3  6  1  0
  6  7  1  0
  7  8  1  0
  8  9  1  0
  9 10  2  0
  9 11  1  0
 11 12  1  0
 12 13  2  0
 13 14  1  0
 14 15  2  0
 15 16  1  0
 16 17  2  0
 17 18  1  0
 18 19  2  0
 19 20  1  0
 13 21  1  0
 21 22  2  0
 22 23  1  0
 23 24  1  0
 23 25  2  0
 25 26  1  0
 26 27  2  0
 27  8  1  0
 19 14  1  0
 27 21  1  0
M  END
$$$$
13048
     RDKit          2D

 29 31  0  0  0  0  0  0  0  0999 V2000
  -12.9041   -9.3825    0.0000 C   0  0  0  0  0  0  0  0  0  0  0  0
  -11.7894   -8.3788    0.0000 C   0  0  0  0  0  0  0  0  0  0  0  0
  -10.3628   -8.8423    0.0000 N   0  0  0  0  0  0  0  0  0  0  0  0
  -10.0510  -10.3095    0.0000 C   0  0  0  0  0  0  0  0  0  0  0  0
  -11.1657  -11.3132    0.0000 C   0  0  0  0  0  0  0  0  0  0  0  0
   -9.2481   -7.8386    0.0000 C   0  0  0  0  0  0  0  0  0  0  0  0
   -7.8215   -8.3021    0.0000 C   0  0  0  0  0  0  0  0  0  0  0  0
   -6.7068   -7.2984    0.0000 N   0  0  0  0  0  0  0  0  0  0  0  0
   -5.2802   -7.7620    0.0000 C   0  0  0  0  0  0  0  0  0  0  0  0
   -4.9684   -9.2292    0.0000 O   0  0  0  0  0  0  0  0  0  0  0  0
   -4.1655   -6.7583    0.0000 C   0  0  0  0  0  0  0  0  0  0  0  0
   -2.6983   -7.0701    0.0000 C   0  0  0  0  0  0  0  0  0  0  0  0
   -2.0882   -8.4404    0.0000 C   0  0  0  0  0  0  0  0  0  0  0  0
   -1.9483   -5.7711    0.0000 N   0  0  0  0  0  0  0  0  0  0  0  0
   -2.9520   -4.6564    0.0000 C   0  0  0  0  0  0  0  0  0  0  0  0
   -2.6401   -3.1891    0.0000 C   0  0  0  0  0  0  0  0  0  0  0  0
   -1.2135   -2.7256    0.0000 C   0  0  0  0  0  0  0  0  0  0  0  0
   -0.0000   -3.6073    0.0000 C   0  0  0  0  0  0  0  0  0  0  0  0
    0.0000   -5.1073    0.0000 O   0  0  0  0  0  0  0  0  0  0  0  0
    1.2135   -2.7256    0.0000 N   0  0  0  0  0  0  0  0  0  0  0  0
    0.7500   -1.2990    0.0000 C   0  0  0  0  0  0  0  0  0  0  0  0
    1.5000    0.0000    0.0000 C   0  0  0  0  0  0  0  0  0  0  0  0
    0.7500    1.2990    0.0000 C   0  0  0  0  0  0  0  0  0  0  0  0
   -0.7500    1.2990    0.0000 C   0  0  0  0  0  0  0  0  0  0  0  0
   -1.5000    2.5981    0.0000 F   0  0  0  0  0  0  0  0  0  0  0  0
   -1.5000    0.0000    0.0000 C   0  0  0  0  0  0  0  0  0  0  0  0
   -0.7500   -1.2990    0.0000 C   0  0  0  0  0  0  0  0  0  0  0  0
   -4.3223   -5.2665    0.0000 C   0  0  0  0  0  0  0  0  0  0  0  0
   -5.6213   -4.5165    0.0000 C   0  0  0  0  0  0  0  0  0  0  0  0
  1  2  1  0
  2  3  1  0
  3  4  1  0
  4  5  1  0
  3  6  1  0
  6  7  1  0
  7  8  1  0
  8  9  1  0
  9 10  2  0
  9 11  1  0
 11 12  2  0
 12 13  1  0
 12 14  1  0
 14 15  1  0
 15 16  1  0
 16 17  2  0
 17 18  1  0
 18 19  2  0
 18 20  1  0
 20 21  1  0
 21 22  2  0
 22 23  1  0
 23 24  2  0
 24 25  1  0
 24 26  1  0
 26 27  2  0
 15 28  2  0
 28 29  1  0
 28 11  1  0
 27 17  1  0
 27 21  1  0
M  END
$$$$
450864
     RDKit          2D

 38 39  0  0  0  0  0  0  0  0999 V2000
  -12.9041   -9.3825    0.0000 C   0  0  0  0  0  0  0  0  0  0  0  0
  -11.7894   -8.3788    0.0000 C   0  0  0  0  0  0  0  0  0  0  0  0
  -10.3628   -8.8423    0.0000 N   0  0  0  0  0  0  0  0  0  0  0  0
  -10.0510  -10.3095    0.0000 C   0  0  0  0  0  0  0  0  0  0  0  0
  -11.1657  -11.3132    0.0000 C   0  0  0  0  0  0  0  0  0  0  0  0
   -9.2481   -7.8386    0.0000 C   0  0  0  0  0  0  0  0  0  0  0  0
   -7.8215   -8.3021    0.0000 C   0  0  0  0  0  0  0  0  0  0  0  0
   -6.7068   -7.2984    0.0000 N   0  0  0  0  0  0  0  0  0  0  0  0
   -5.2802   -7.7620    0.0000 C   0  0  0  0  0  0  0  0  0  0  0  0
   -4.9684   -9.2292    0.0000 O   0  0  0  0  0  0  0  0  0  0  0  0
   -4.1655   -6.7583    0.0000 C   0  0  0  0  0  0  0  0  0  0  0  0
   -2.6983   -7.0701    0.0000 C   0  0  0  0  0  0  0  0  0  0  0  0
   -2.0882   -8.4404    0.0000 C   0  0  0  0  0  0  0  0  0  0  0  0
   -1.9483   -5.7711    0.0000 N   0  0  0  0  0  0  0  0  0  0  0  0
   -2.9520   -4.6564    0.0000 C   0  0  0  0  0  0  0  0  0  0  0  0
   -2.6401   -3.1891    0.0000 C   0  0  0  0  0  0  0  0  0  0  0  0
   -1.2135   -2.7256    0.0000 C   0  0  0  0  0  0  0  0  0  0  0  0
   -0.0000   -3.6073    0.0000 C   0  0  0  0  0  0  0  0  0  0  0  0
    0.0000   -5.1073    0.0000 O   0  0  0  0  0  0  0  0  0  0  0  0
    1.2135   -2.7256    0.0000 N   0  0  0  0  0  0  0  0  0  0  0  0
    0.7500   -1.2990    0.0000 C   0  0  0  0  0  0  0  0  0  0  0  0
    1.5000    0.0000    0.0000 C   0  0  0  0  0  0  0  0  0  0  0  0
    0.7500    1.2990    0.0000 C   0  0  0  0  0  0  0  0  0  0  0  0
   -0.7500    1.2990    0.0000 C   0  0  0  0  0  0  0  0  0  0  0  0
   -1.5000    2.5981    0.0000 F   0  0  0  0  0  0  0  0  0  0  0  0
   -1.5000    0.0000    0.0000 C   0  0  0  0  0  0  0  0  0  0  0  0
   -0.7500   -1.2990    0.0000 C   0  0  0  0  0  0  0  0  0  0  0  0
   -4.3223   -5.2665    0.0000 C   0  0  0  0  0  0  0  0  0  0  0  0
   -5.6213   -4.5165    0.0000 C   0  0  0  0  0  0  0  0  0  0  0  0
    1.2990    7.3481    0.0000 O   0  0  0  0  0  0  0  0  0  0  0  0
    1.2990    5.8481    0.0000 C   0  0  0  0  0  0  0  0  0  0  0  0
    0.0000    5.0981    0.0000 C   0  0  0  0  0  0  0  0  0  0  0  0
   -1.2990    5.8481    0.0000 C   0  0  0  0  0  0  0  0  0  0  0  0
   -1.2990    7.3481    0.0000 O   0  0  0  0  0  0  0  0  0  0  0  0
   -2.5981    5.0981    0.0000 O   0  0  0  0  0  0  0  0  0  0  0  0
    2.5981    5.0981    0.0000 C   0  0  0  0  0  0  0  0  0  0  0  0
    2.5981    3.5981    0.0000 O   0  0  0  0  0  0  0  0  0  0  0  0
    3.8971    5.8481    0.0000 O   0  0  0  0  0  0  0  0  0  0  0  0
  1  2  1  0
  2  3  1  0
  3  4  1  0
  4  5  1  0
  3  6  1  0
  6  7  1  0
  7  8  1  0
  8  9  1  0
  9 10  2  0
  9 11  1  0
 11 12  2  0
 12 13  1  0
 12 14  1  0
 14 15  1  0
 15 16  1  0
 16 17  2  0
 17 18  1  0
 18 19  2  0
 18 20  1  0
 20 21  1  0
 21 22  2  0
 22 23  1  0
 23 24  2  0
 24 25  1  0
 24 26  1  0
 26 27  2  0
 15 28  2  0
 28 29  1  0
 31 30  1  6
 31 32  1  0
 32 33  1  0
 33 34  2  0
 33 35  1  0
 31 36  1  0
 36 37  2  0
 36 38  1  0
 28 11  1  0
 27 17  1  0
 27 21  1  0
M  END
$$$$
7736
     RDKit          2D

 20 20  0  0  0  0  0  0  0  0999 V2000
    9.7500   -3.8971    0.0000 C   0  0  0  0  0  0  0  0  0  0  0  0
    8.2500   -3.8971    0.0000 C   0  0  0  0  0  0  0  0  0  0  0  0
    7.5000   -2.5981    0.0000 N   0  0  0  0  0  0  0  0  0  0  0  0
    8.2500   -1.2990    0.0000 C   0  0  0  0  0  0  0  0  0  0  0  0
    9.7500   -1.2990    0.0000 C   0  0  0  0  0  0  0  0  0  0  0  0
    6.0000   -2.5981    0.0000 C   0  0  0  0  0  0  0  0  0  0  0  0
    5.2500   -1.2990    0.0000 C   0  0  0  0  0  0  0  0  0  0  0  0
    3.7500   -1.2990    0.0000 N   0  0  0  0  0  0  0  0  0  0  0  0
    3.0000    0.0000    0.0000 C   0  0  0  0  0  0  0  0  0  0  0  0
    3.7500    1.2990    0.0000 O   0  0  0  0  0  0  0  0  0  0  0  0
    1.5000    0.0000    0.0000 C   0  0  0  0  0  0  0  0  0  0  0  0
    0.7500   -1.2990    0.0000 C   0  0  0  0  0  0  0  0  0  0  0  0
   -0.7500   -1.2990    0.0000 C   0  0  0  0  0  0  0  0  0  0  0  0
   -1.5000   -2.5981    0.0000 Cl  0  0  0  0  0  0  0  0  0  0  0  0
   -1.5000    0.0000    0.0000 C   0  0  0  0  0  0  0  0  0  0  0  0
   -3.0000    0.0000    0.0000 N   0  0  0  0  0  0  0  0  0  0  0  0
   -0.7500    1.2990    0.0000 C   0  0  0  0  0  0  0  0  0  0  0  0
    0.7500    1.2990    0.0000 C   0  0  0  0  0  0  0  0  0  0  0  0
    1.5000    2.5981    0.0000 O   0  0  0  0  0  0  0  0  0  0  0  0
    0.7500    3.8971    0.0000 C   0  0  0  0  0  0  0  0  0  0  0  0
  1  2  1  0
  2  3  1  0
  3  4  1  0
  4  5  1  0
  3  6  1  0
  6  7  1  0
  7  8  1  0
  8  9  1  0
  9 10  2  0
  9 11  1  0
 11 12  2  0
 12 13  1  0
 13 14  1  0
 13 15  2  0
 15 16  1  0
 15 17  1  0
 17 18  2  0
 18 19  1  0
 19 20  1  0
 18 11  1  0
M  END
$$$$
27341
     RDKit          2D

 17 17  0  0  0  0  0  0  0  0999 V2000
    9.7500   -3.8971    0.0000 C   0  0  0  0  0  0  0  0  0  0  0  0
    8.2500   -3.8971    0.0000 C   0  0  0  0  0  0  0  0  0  0  0  0
    7.5000   -2.5981    0.0000 N   0  0  0  0  0  0  0  0  0  0  0  0
    8.2500   -1.2990    0.0000 C   0  0  0  0  0  0  0  0  0  0  0  0
    9.7500   -1.2990    0.0000 C   0  0  0  0  0  0  0  0  0  0  0  0
    6.0000   -2.5981    0.0000 C   0  0  0  0  0  0  0  0  0  0  0  0
    5.2500   -1.2990    0.0000 C   0  0  0  0  0  0  0  0  0  0  0  0
    3.7500   -1.2990    0.0000 N   0  0  0  0  0  0  0  0  0  0  0  0
    3.0000    0.0000    0.0000 C   0  0  0  0  0  0  0  0  0  0  0  0
    3.7500    1.2990    0.0000 O   0  0  0  0  0  0  0  0  0  0  0  0
    1.5000    0.0000    0.0000 C   0  0  0  0  0  0  0  0  0  0  0  0
    0.7500   -1.2990    0.0000 C   0  0  0  0  0  0  0  0  0  0  0  0
   -0.7500   -1.2990    0.0000 C   0  0  0  0  0  0  0  0  0  0  0  0
   -1.5000    0.0000    0.0000 C   0  0  0  0  0  0  0  0  0  0  0  0
   -3.0000    0.0000    0.0000 N   0  0  0  0  0  0  0  0  0  0  0  0
   -0.7500    1.2990    0.0000 C   0  0  0  0  0  0  0  0  0  0  0  0
    0.7500    1.2990    0.0000 C   0  0  0  0  0  0  0  0  0  0  0  0
  1  2  1  0
  2  3  1  0
  3  4  1  0
  4  5  1  0
  3  6  1  0
  6  7  1  0
  7  8  1  0
  8  9  1  0
  9 10  2  0
  9 11  1  0
 11 12  2  0
 12 13  1  0
 13 14  2  0
 14 15  1  0
 14 16  1  0
 16 17  2  0
 17 11  1  0
M  END
$$$$
165774
     RDKit          2D

 22 23  0  0  0  0  0  0  0  0999 V2000
   -4.5205   -8.7470    0.0000 C   0  0  0  0  0  0  0  0  0  0  0  0
   -4.2600   -7.2698    0.0000 C   0  0  0  0  0  0  0  0  0  0  0  0
   -2.8505   -6.7567    0.0000 N   0  0  0  0  0  0  0  0  0  0  0  0
   -1.7014   -7.7209    0.0000 C   0  0  0  0  0  0  0  0  0  0  0  0
   -1.9619   -9.1981    0.0000 C   0  0  0  0  0  0  0  0  0  0  0  0
   -2.5900   -5.2795    0.0000 C   0  0  0  0  0  0  0  0  0  0  0  0
   -1.1805   -4.7665    0.0000 C   0  0  0  0  0  0  0  0  0  0  0  0
   -0.9200   -3.2893    0.0000 O   0  0  0  0  0  0  0  0  0  0  0  0
    0.4895   -2.7762    0.0000 C   0  0  0  0  0  0  0  0  0  0  0  0
    1.6386   -3.7404    0.0000 O   0  0  0  0  0  0  0  0  0  0  0  0
    0.7500   -1.2990    0.0000 C   0  0  0  0  0  0  0  0  0  0  0  0
    1.5000    0.0000    0.0000 C   0  0  0  0  0  0  0  0  0  0  0  0
    0.7500    1.2990    0.0000 C   0  0  0  0  0  0  0  0  0  0  0  0
   -0.7500    1.2990    0.0000 C   0  0  0  0  0  0  0  0  0  0  0  0
   -1.5000    0.0000    0.0000 C   0  0  0  0  0  0  0  0  0  0  0  0
   -0.7500   -1.2990    0.0000 C   0  0  0  0  0  0  0  0  0  0  0  0
    2.1595   -1.8121    0.0000 C   0  0  0  0  0  0  0  0  0  0  0  0
    2.4200   -3.2893    0.0000 C   0  0  0  0  0  0  0  0  0  0  0  0
    3.8296   -3.8023    0.0000 C   0  0  0  0  0  0  0  0  0  0  0  0
    4.9786   -2.8381    0.0000 C   0  0  0  0  0  0  0  0  0  0  0  0
    4.7181   -1.3609    0.0000 C   0  0  0  0  0  0  0  0  0  0  0  0
    3.3086   -0.8479    0.0000 C   0  0  0  0  0  0  0  0  0  0  0  0
  1  2  1  0
  2  3  1  0
  3  4  1  0
  4  5  1  0
  3  6  1  0
  6  7  1  0
  7  8  1  0
  8  9  1  0
  9 10  2  0
  9 11  1  0
 11 12  1  0
 12 13  1  0
 13 14  1  0
 14 15  1  0
 15 16  1  0
 11 17  1  0
 17 18  1  0
 18 19  1  0
 19 20  1  0
 20 21  1  0
 21 22  1  0
 16 11  1  0
 22 17  1  0
M  END
$$$$
1532240
     RDKit          2D

 29 31  0  0  0  0  0  0  0  0999 V2000
    8.2500   -3.8971    0.0000 C   0  0  0  0  0  0  0  0  0  0  0  0
    7.5000   -2.5981    0.0000 C   0  0  0  0  0  0  0  0  0  0  0  0
    6.0000   -2.5981    0.0000 N   0  0  0  0  0  0  0  0  0  0  0  0
    5.2500   -3.8971    0.0000 C   0  0  0  0  0  0  0  0  0  0  0  0
    6.0000   -5.1962    0.0000 C   0  0  0  0  0  0  0  0  0  0  0  0
    5.2500   -1.2990    0.0000 C   0  0  0  0  0  0  0  0  0  0  0  0
    3.7500   -1.2990    0.0000 C   0  0  0  0  0  0  0  0  0  0  0  0
    3.0000    0.0000    0.0000 O   0  0  0  0  0  0  0  0  0  0  0  0
    1.5000    0.0000    0.0000 C   0  0  0  0  0  0  0  0  0  0  0  0
    0.7500   -1.2990    0.0000 C   0  0  0  0  0  0  0  0  0  0  0  0
   -0.7500   -1.2990    0.0000 C   0  0  0  0  0  0  0  0  0  0  0  0
   -1.5000    0.0000    0.0000 C   0  0  0  0  0  0  0  0  0  0  0  0
   -0.7500    1.2990    0.0000 C   0  0  0  0  0  0  0  0  0  0  0  0
    0.7500    1.2990    0.0000 C   0  0  0  0  0  0  0  0  0  0  0  0
   -3.0000    0.0000    0.0000 C   0  0  0  0  0  0  0  0  0  0  0  0
   -3.7500   -1.2990    0.0000 C   0  0  0  0  0  0  0  0  0  0  0  0
   -3.0000   -2.5981    0.0000 Cl  0  0  0  0  0  0  0  0  0  0  0  0
   -5.2500   -1.2990    0.0000 C   0  0  0  0  0  0  0  0  0  0  0  0
   -6.0000    0.0000    0.0000 C   0  0  0  0  0  0  0  0  0  0  0  0
   -7.5000    0.0000    0.0000 C   0  0  0  0  0  0  0  0  0  0  0  0
   -8.2500   -1.2990    0.0000 C   0  0  0  0  0  0  0  0  0  0  0  0
   -7.5000   -2.5981    0.0000 C   0  0  0  0  0  0  0  0  0  0  0  0
   -6.0000   -2.5981    0.0000 C   0  0  0  0  0  0  0  0  0  0  0  0
   -3.7500    1.2990    0.0000 C   0  0  0  0  0  0  0  0  0  0  0  0
   -3.0000    2.5981    0.0000 C   0  0  0  0  0  0  0  0  0  0  0  0
   -3.7500    3.8971    0.0000 C   0  0  0  0  0  0  0  0  0  0  0  0
   -5.2500    3.8971    0.0000 C   0  0  0  0  0  0  0  0  0  0  0  0
   -6.0000    2.5981    0.0000 C   0  0  0  0  0  0  0  0  0  0  0  0
   -5.2500    1.2990    0.0000 C   0  0  0  0  0  0  0  0  0  0  0  0
  1  2  1  0
  2  3  1  0
  3  4  1  0
  4  5  1  0
  3  6  1  0
  6  7  1  0
  7  8  1  0
  8  9  1  0
  9 10  2  0
 10 11  1  0
 11 12  2  0
 12 13  1  0
 13 14  2  0
 12 15  1  0
 15 16  2  3
 16 17  1  0
 16 18  1  0
 18 19  2  0
 19 20  1  0
 20 21  2  0
 21 22  1  0
 22 23  2  0
 15 24  1  0
 24 25  2  0
 25 26  1  0
 26 27  2  0
 27 28  1  0
 28 29  2  0
 14  9  1  0
 23 18  1  0
 29 24  1  0
M  END
$$$$
1675249
     RDKit          2D

 42 43  0  0  0  0  0  0  0  0999 V2000
    8.2500   -3.8971    0.0000 C   0  0  0  0  0  0  0  0  0  0  0  0
    7.5000   -2.5981    0.0000 C   0  0  0  0  0  0  0  0  0  0  0  0
    6.0000   -2.5981    0.0000 N   0  0  0  0  0  0  0  0  0  0  0  0
    5.2500   -3.8971    0.0000 C   0  0  0  0  0  0  0  0  0  0  0  0
    6.0000   -5.1962    0.0000 C   0  0  0  0  0  0  0  0  0  0  0  0
    5.2500   -1.2990    0.0000 C   0  0  0  0  0  0  0  0  0  0  0  0
    3.7500   -1.2990    0.0000 C   0  0  0  0  0  0  0  0  0  0  0  0
    3.0000    0.0000    0.0000 O   0  0  0  0  0  0  0  0  0  0  0  0
    1.5000    0.0000    0.0000 C   0  0  0  0  0  0  0  0  0  0  0  0
    0.7500   -1.2990    0.0000 C   0  0  0  0  0  0  0  0  0  0  0  0
   -0.7500   -1.2990    0.0000 C   0  0  0  0  0  0  0  0  0  0  0  0
   -1.5000    0.0000    0.0000 C   0  0  0  0  0  0  0  0  0  0  0  0
   -0.7500    1.2990    0.0000 C   0  0  0  0  0  0  0  0  0  0  0  0
    0.7500    1.2990    0.0000 C   0  0  0  0  0  0  0  0  0  0  0  0
   -3.0000    0.0000    0.0000 C   0  0  0  0  0  0  0  0  0  0  0  0
   -3.7500   -1.2990    0.0000 C   0  0  0  0  0  0  0  0  0  0  0  0
   -3.0000   -2.5981    0.0000 Cl  0  0  0  0  0  0  0  0  0  0  0  0
   -5.2500   -1.2990    0.0000 C   0  0  0  0  0  0  0  0  0  0  0  0
   -6.0000    0.0000    0.0000 C   0  0  0  0  0  0  0  0  0  0  0  0
   -7.5000    0.0000    0.0000 C   0  0  0  0  0  0  0  0  0  0  0  0
   -8.2500   -1.2990    0.0000 C   0  0  0  0  0  0  0  0  0  0  0  0
   -7.5000   -2.5981    0.0000 C   0  0  0  0  0  0  0  0  0  0  0  0
   -6.0000   -2.5981    0.0000 C   0  0  0  0  0  0  0  0  0  0  0  0
   -3.7500    1.2990    0.0000 C   0  0  0  0  0  0  0  0  0  0  0  0
   -3.0000    2.5981    0.0000 C   0  0  0  0  0  0  0  0  0  0  0  0
   -3.7500    3.8971    0.0000 C   0  0  0  0  0  0  0  0  0  0  0  0
   -5.2500    3.8971    0.0000 C   0  0  0  0  0  0  0  0  0  0  0  0
   -6.0000    2.5981    0.0000 C   0  0  0  0  0  0  0  0  0  0  0  0
   -5.2500    1.2990    0.0000 C   0  0  0  0  0  0  0  0  0  0  0  0
   -2.5981    6.7452    0.0000 O   0  0  0  0  0  0  0  0  0  0  0  0
   -1.2990    7.4952    0.0000 C   0  0  0  0  0  0  0  0  0  0  0  0
   -1.2990    8.9952    0.0000 O   0  0  0  0  0  0  0  0  0  0  0  0
    0.0000    6.7452    0.0000 C   0  0  0  0  0  0  0  0  0  0  0  0
    1.2990    7.4952    0.0000 C   0  0  0  0  0  0  0  0  0  0  0  0
    0.5490    8.7942    0.0000 O   0  0  0  0  0  0  0  0  0  0  0  0
    2.5981    8.2452    0.0000 C   0  0  0  0  0  0  0  0  0  0  0  0
    2.5981    9.7452    0.0000 C   0  0  0  0  0  0  0  0  0  0  0  0
    1.2990   10.4952    0.0000 O   0  0  0  0  0  0  0  0  0  0  0  0
    3.8971   10.4952    0.0000 O   0  0  0  0  0  0  0  0  0  0  0  0
    2.0490    6.1962    0.0000 C   0  0  0  0  0  0  0  0  0  0  0  0
    1.2990    4.8971    0.0000 O   0  0  0  0  0  0  0  0  0  0  0  0
    3.5490    6.1962    0.0000 O   0  0  0  0  0  0  0  0  0  0  0  0
  1  2  1  0
  2  3  1  0
  3  4  1  0
  4  5  1  0
  3  6  1  0
  6  7  1  0
  7  8  1  0
  8  9  1  0
  9 10  2  0
 10 11  1  0
 11 12  2  0
 12 13  1  0
 13 14  2  0
 12 15  1  0
 15 16  2  3
 16 17  1  0
 16 18  1  0
 18 19  2  0
 19 20  1  0
 20 21  2  0
 21 22  1  0
 22 23  2  0
 15 24  1  0
 24 25  2  0
 25 26  1  0
 26 27  2  0
 27 28  1  0
 28 29  2  0
 30 31  1  0
 31 32  2  0
 31 33  1  0
 33 34  1  0
 34 35  1  0
 34 36  1  0
 36 37  1  0
 37 38  2  0
 37 39  1  0
 34 40  1  0
 40 41  2  0
 40 42  1  0
 14  9  1  0
 23 18  1  0
 29 24  1  0
M  END
$$$$
429737
     RDKit          2D

 23 24  0  0  0  0  0  0  0  0999 V2000
    3.7500   -9.0933    0.0000 C   0  0  0  0  0  0  0  0  0  0  0  0
    3.0000   -7.7942    0.0000 C   0  0  0  0  0  0  0  0  0  0  0  0
    3.7500   -6.4952    0.0000 N   0  0  0  0  0  0  0  0  0  0  0  0
    5.2500   -6.4952    0.0000 C   0  0  0  0  0  0  0  0  0  0  0  0
    6.0000   -7.7942    0.0000 C   0  0  0  0  0  0  0  0  0  0  0  0
    7.5000   -7.7942    0.0000 O   0  0  0  0  0  0  0  0  0  0  0  0
    3.0000   -5.1962    0.0000 C   0  0  0  0  0  0  0  0  0  0  0  0
    3.7500   -3.8971    0.0000 C   0  0  0  0  0  0  0  0  0  0  0  0
    3.0000   -2.5981    0.0000 C   0  0  0  0  0  0  0  0  0  0  0  0
    3.7500   -1.2990    0.0000 C   0  0  0  0  0  0  0  0  0  0  0  0
    5.2500   -1.2990    0.0000 C   0  0  0  0  0  0  0  0  0  0  0  0
    3.0000    0.0000    0.0000 N   0  0  0  0  0  0  0  0  0  0  0  0
    1.5000    0.0000    0.0000 C   0  0  0  0  0  0  0  0  0  0  0  0
    0.7500   -1.2990    0.0000 C   0  0  0  0  0  0  0  0  0  0  0  0
   -0.7500   -1.2990    0.0000 C   0  0  0  0  0  0  0  0  0  0  0  0
   -1.5000    0.0000    0.0000 N   0  0  0  0  0  0  0  0  0  0  0  0
   -0.7500    1.2990    0.0000 C   0  0  0  0  0  0  0  0  0  0  0  0
   -1.5000    2.5981    0.0000 C   0  0  0  0  0  0  0  0  0  0  0  0
   -0.7500    3.8971    0.0000 C   0  0  0  0  0  0  0  0  0  0  0  0
   -1.5000    5.1962    0.0000 Cl  0  0  0  0  0  0  0  0  0  0  0  0
    0.7500    3.8971    0.0000 C   0  0  0  0  0  0  0  0  0  0  0  0
    1.5000    2.5981    0.0000 C   0  0  0  0  0  0  0  0  0  0  0  0
    0.7500    1.2990    0.0000 C   0  0  0  0  0  0  0  0  0  0  0  0
  1  2  1  0
  2  3  1  0
  3  4  1  0
  4  5  1  0
  5  6  1  0
  3  7  1  0
  7  8  1  0
  8  9  1  0
  9 10  1  0
 10 11  1  0
 10 12  1  0
 12 13  1  0
 13 14  2  0
 14 15  1  0
 15 16  2  0
 16 17  1  0
 17 18  2  0
 18 19  1  0
 19 20  1  0
 19 21  2  0
 21 22  1  0
 22 23  2  0
 23 13  1  0
 23 17  1  0
M  END
$$$$
529987
     RDKit          2D

 28 28  0  0  0  0  0  0  0  0999 V2000
    3.7500   -9.0933    0.0000 C   0  0  0  0  0  0  0  0  0  0  0  0
    3.0000   -7.7942    0.0000 C   0  0  0  0  0  0  0  0  0  0  0  0
    3.7500   -6.4952    0.0000 N   0  0  0  0  0  0  0  0  0  0  0  0
    5.2500   -6.4952    0.0000 C   0  0  0  0  0  0  0  0  0  0  0  0
    6.0000   -7.7942    0.0000 C   0  0  0  0  0  0  0  0  0  0  0  0
    7.5000   -7.7942    0.0000 O   0  0  0  0  0  0  0  0  0  0  0  0
    3.0000   -5.1962    0.0000 C   0  0  0  0  0  0  0  0  0  0  0  0
    3.7500   -3.8971    0.0000 C   0  0  0  0  0  0  0  0  0  0  0  0
    3.0000   -2.5981    0.0000 C   0  0  0  0  0  0  0  0  0  0  0  0
    3.7500   -1.2990    0.0000 C   0  0  0  0  0  0  0  0  0  0  0  0
    5.2500   -1.2990    0.0000 C   0  0  0  0  0  0  0  0  0  0  0  0
    3.0000    0.0000    0.0000 N   0  0  0  0  0  0  0  0  0  0  0  0
    1.5000    0.0000    0.0000 C   0  0  0  0  0  0  0  0  0  0  0  0
    0.7500   -1.2990    0.0000 C   0  0  0  0  0  0  0  0  0  0  0  0
   -0.7500   -1.2990    0.0000 C   0  0  0  0  0  0  0  0  0  0  0  0
   -1.5000    0.0000    0.0000 N   0  0  0  0  0  0  0  0  0  0  0  0
   -0.7500    1.2990    0.0000 C   0  0  0  0  0  0  0  0  0  0  0  0
   -1.5000    2.5981    0.0000 C   0  0  0  0  0  0  0  0  0  0  0  0
   -0.7500    3.8971    0.0000 C   0  0  0  0  0  0  0  0  0  0  0  0
   -1.5000    5.1962    0.0000 Cl  0  0  0  0  0  0  0  0  0  0  0  0
    0.7500    3.8971    0.0000 C   0  0  0  0  0  0  0  0  0  0  0  0
    1.5000    2.5981    0.0000 C   0  0  0  0  0  0  0  0  0  0  0  0
    0.7500    1.2990    0.0000 C   0  0  0  0  0  0  0  0  0  0  0  0
    8.5000    0.0000    0.0000 O   0  0  0  0  0  0  0  0  0  0  0  0
    9.7990    0.7500    0.0000 S   0  0  0  0  0  0  0  0  0  0  0  0
   10.5490   -0.5490    0.0000 O   0  0  0  0  0  0  0  0  0  0  0  0
    9.0490    2.0490    0.0000 O   0  0  0  0  0  0  0  0  0  0  0  0
   11.0981    1.5000    0.0000 O   0  0  0  0  0  0  0  0  0  0  0  0
  1  2  1  0
  2  3  1  0
  3  4  1  0
  4  5  1  0
  5  6  1  0
  3  7  1  0
  7  8  1  0
  8  9  1  0
  9 10  1  0
 10 11  1  0
 10 12  1  0
 12 13  1  0
 13 14  2  0
 14 15  1  0
 15 16  2  0
 16 17  1  0
 17 18  2  0
 18 19  1  0
 19 20  1  0
 19 21  2  0
 21 22  1  0
 22 23  2  0
 24 25  1  0
 25 26  2  0
 25 27  2  0
 25 28  1  0
 23 13  1  0
 23 17  1  0
M  END
$$$$
150452
     RDKit          2D

 15 16  0  0  0  0  0  0  0  0999 V2000
    0.4775   -7.0740    0.0000 C   0  0  0  0  0  0  0  0  0  0  0  0
    1.8478   -6.4639    0.0000 C   0  0  0  0  0  0  0  0  0  0  0  0
    2.0046   -4.9721    0.0000 N   0  0  0  0  0  0  0  0  0  0  0  0
    3.3037   -4.2221    0.0000 C   0  0  0  0  0  0  0  0  0  0  0  0
    4.6740   -4.8322    0.0000 O   0  0  0  0  0  0  0  0  0  0  0  0
    2.9918   -2.7549    0.0000 N   0  0  0  0  0  0  0  0  0  0  0  0
    1.5000   -2.5981    0.0000 C   0  0  0  0  0  0  0  0  0  0  0  0
    0.8899   -3.9684    0.0000 C   0  0  0  0  0  0  0  0  0  0  0  0
   -0.5773   -4.2803    0.0000 O   0  0  0  0  0  0  0  0  0  0  0  0
    0.7500   -1.2990    0.0000 C   0  0  0  0  0  0  0  0  0  0  0  0
    1.5000    0.0000    0.0000 C   0  0  0  0  0  0  0  0  0  0  0  0
    0.7500    1.2990    0.0000 C   0  0  0  0  0  0  0  0  0  0  0  0
   -0.7500    1.2990    0.0000 C   0  0  0  0  0  0  0  0  0  0  0  0
   -1.5000    0.0000    0.0000 C   0  0  0  0  0  0  0  0  0  0  0  0
   -0.7500   -1.2990    0.0000 C   0  0  0  0  0  0  0  0  0  0  0  0
  1  2  1  0
  2  3  1  0
  3  4  1  0
  4  5  2  0
  4  6  1  0
  6  7  1  0
  7  8  1  0
  8  9  2  0
  7 10  1  0
 10 11  2  0
 11 12  1  0
 12 13  2  0
 13 14  1  0
 14 15  2  0
  8  3  1  0
 15 10  1  0
M  END
$$$$
246
     RDKit          2D

 23 25  0  0  0  0  0  0  0  0999 V2000
   -3.7500   -3.8971    0.0000 C   0  0  0  0  0  0  0  0  0  0  0  0
   -3.0000   -2.5981    0.0000 C   0  0  0  0  0  0  0  0  0  0  0  0
   -1.5000   -2.5981    0.0000 N   0  0  0  0  0  0  0  0  0  0  0  0
   -0.7500   -3.8971    0.0000 C   0  0  0  0  0  0  0  0  0  0  0  0
    0.7500   -3.8971    0.0000 C   0  0  0  0  0  0  0  0  0  0  0  0
    1.5000   -5.1962    0.0000 C   0  0  0  0  0  0  0  0  0  0  0  0
    3.0000   -5.1962    0.0000 O   0  0  0  0  0  0  0  0  0  0  0  0
    0.7500   -6.4952    0.0000 O   0  0  0  0  0  0  0  0  0  0  0  0
    1.5000   -2.5981    0.0000 C   0  0  0  0  0  0  0  0  0  0  0  0
    3.0000   -2.5981    0.0000 O   0  0  0  0  0  0  0  0  0  0  0  0
    0.7500   -1.2990    0.0000 C   0  0  0  0  0  0  0  0  0  0  0  0
    1.5000    0.0000    0.0000 C   0  0  0  0  0  0  0  0  0  0  0  0
    0.7500    1.2990    0.0000 C   0  0  0  0  0  0  0  0  0  0  0  0
    1.5000    2.5981    0.0000 F   0  0  0  0  0  0  0  0  0  0  0  0
   -0.7500    1.2990    0.0000 C   0  0  0  0  0  0  0  0  0  0  0  0
   -1.5000    0.0000    0.0000 C   0  0  0  0  0  0  0  0  0  0  0  0
   -0.7500   -1.2990    0.0000 C   0  0  0  0  0  0  0  0  0  0  0  0
   -1.5000    2.5981    0.0000 N   0  0  0  0  0  0  0  0  0  0  0  0
   -0.7500    3.8971    0.0000 C   0  0  0  0  0  0  0  0  0  0  0  0
   -1.5000    5.1962    0.0000 C   0  0  0  0  0  0  0  0  0  0  0  0
   -3.0000    5.1962    0.0000 N   0  0  0  0  0  0  0  0  0  0  0  0
   -3.7500    3.8971    0.0000 C   0  0  0  0  0  0  0  0  0  0  0  0
   -3.0000    2.5981    0.0000 C   0  0  0  0  0  0  0  0  0  0  0  0
  1  2  1  0
  2  3  1  0
  3  4  1  0
  4  5  2  0
  5  6  1  0
  6  7  2  0
  6  8  1  0
  5  9  1  0
  9 10  2  0
  9 11  1  0
 11 12  2  0
 12 13  1  0
 13 14  1  0
 13 15  2  0
 15 16  1  0
 16 17  2  0
 15 18  1  0
 18 19  1  0
 19 20  1  0
 20 21  1  0
 21 22  1  0
 22 23  1  0
 17  3  1  0
 17 11  1  0
 23 18  1  0
M  END
$$$$
16278
     RDKit          2D

 25 27  0  0  0  0  0  0  0  0999 V2000
    3.7500   -1.2990    0.0000 C   0  0  0  0  0  0  0  0  0  0  0  0
    3.0000    0.0000    0.0000 C   0  0  0  0  0  0  0  0  0  0  0  0
    1.5000    0.0000    0.0000 N   0  0  0  0  0  0  0  0  0  0  0  0
    0.7500   -1.2990    0.0000 C   0  0  0  0  0  0  0  0  0  0  0  0
   -0.7500   -1.2990    0.0000 C   0  0  0  0  0  0  0  0  0  0  0  0
   -1.5000   -2.5981    0.0000 C   0  0  0  0  0  0  0  0  0  0  0  0
   -0.7500   -3.8971    0.0000 O   0  0  0  0  0  0  0  0  0  0  0  0
   -3.0000   -2.5981    0.0000 O   0  0  0  0  0  0  0  0  0  0  0  0
   -1.5000    0.0000    0.0000 C   0  0  0  0  0  0  0  0  0  0  0  0
   -3.0000    0.0000    0.0000 O   0  0  0  0  0  0  0  0  0  0  0  0
   -0.7500    1.2990    0.0000 C   0  0  0  0  0  0  0  0  0  0  0  0
   -1.5000    2.5981    0.0000 C   0  0  0  0  0  0  0  0  0  0  0  0
   -0.7500    3.8971    0.0000 C   0  0  0  0  0  0  0  0  0  0  0  0
   -1.5000    5.1962    0.0000 F   0  0  0  0  0  0  0  0  0  0  0  0
    0.7500    3.8971    0.0000 C   0  0  0  0  0  0  0  0  0  0  0  0
    1.5000    5.1962    0.0000 N   0  0  0  0  0  0  0  0  0  0  0  0
    3.0000    5.1962    0.0000 C   0  0  0  0  0  0  0  0  0  0  0  0
    3.7500    6.4952    0.0000 C   0  0  0  0  0  0  0  0  0  0  0  0
    3.0000    7.7942    0.0000 N   0  0  0  0  0  0  0  0  0  0  0  0
    1.5000    7.7942    0.0000 C   0  0  0  0  0  0  0  0  0  0  0  0
    0.7500    9.0933    0.0000 C   0  0  0  0  0  0  0  0  0  0  0  0
    0.7500    6.4952    0.0000 C   0  0  0  0  0  0  0  0  0  0  0  0
    1.5000    2.5981    0.0000 C   0  0  0  0  0  0  0  0  0  0  0  0
    3.0000    2.5981    0.0000 F   0  0  0  0  0  0  0  0  0  0  0  0
    0.7500    1.2990    0.0000 C   0  0  0  0  0  0  0  0  0  0  0  0
  1  2  1  0
  2  3  1  0
  3  4  1  0
  4  5  2  0
  5  6  1  0
  6  7  2  0
  6  8  1  0
  5  9  1  0
  9 10  2  0
  9 11  1  0
 11 12  2  0
 12 13  1  0
 13 14  1  0
 13 15  2  0
 15 16  1  0
 16 17  1  0
 17 18  1  0
 18 19  1  0
 19 20  1  0
 20 21  1  0
 20 22  1  0
 15 23  1  0
 23 24  1  0
 23 25  2  0
 25  3  1  0
 25 11  1  0
 22 16  1  0
M  END
$$$$
57175
     RDKit          2D

 23 25  0  0  0  0  0  0  0  0999 V2000
   -3.7500   -3.8971    0.0000 C   0  0  0  0  0  0  0  0  0  0  0  0
   -3.0000   -2.5981    0.0000 C   0  0  0  0  0  0  0  0  0  0  0  0
   -1.5000   -2.5981    0.0000 N   0  0  0  0  0  0  0  0  0  0  0  0
   -0.7500   -3.8971    0.0000 C   0  0  0  0  0  0  0  0  0  0  0  0
    0.7500   -3.8971    0.0000 C   0  0  0  0  0  0  0  0  0  0  0  0
    1.5000   -5.1962    0.0000 C   0  0  0  0  0  0  0  0  0  0  0  0
    3.0000   -5.1962    0.0000 O   0  0  0  0  0  0  0  0  0  0  0  0
    0.7500   -6.4952    0.0000 O   0  0  0  0  0  0  0  0  0  0  0  0
    1.5000   -2.5981    0.0000 C   0  0  0  0  0  0  0  0  0  0  0  0
    3.0000   -2.5981    0.0000 O   0  0  0  0  0  0  0  0  0  0  0  0
    0.7500   -1.2990    0.0000 C   0  0  0  0  0  0  0  0  0  0  0  0
    1.5000    0.0000    0.0000 C   0  0  0  0  0  0  0  0  0  0  0  0
    0.7500    1.2990    0.0000 C   0  0  0  0  0  0  0  0  0  0  0  0
    1.5000    2.5981    0.0000 F   0  0  0  0  0  0  0  0  0  0  0  0
   -0.7500    1.2990    0.0000 C   0  0  0  0  0  0  0  0  0  0  0  0
   -1.5000    0.0000    0.0000 N   0  0  0  0  0  0  0  0  0  0  0  0
   -0.7500   -1.2990    0.0000 C   0  0  0  0  0  0  0  0  0  0  0  0
   -1.5000    2.5981    0.0000 N   0  0  0  0  0  0  0  0  0  0  0  0
   -0.7500    3.8971    0.0000 C   0  0  0  0  0  0  0  0  0  0  0  0
   -1.5000    5.1962    0.0000 C   0  0  0  0  0  0  0  0  0  0  0  0
   -3.0000    5.1962    0.0000 N   0  0  0  0  0  0  0  0  0  0  0  0
   -3.7500    3.8971    0.0000 C   0  0  0  0  0  0  0  0  0  0  0  0
   -3.0000    2.5981    0.0000 C   0  0  0  0  0  0  0  0  0  0  0  0
  1  2  1  0
  2  3  1  0
  3  4  1  0
  4  5  2  0
  5  6  1  0
  6  7  2  0
  6  8  1  0
  5  9  1  0
  9 10  2  0
  9 11  1  0
 11 12  2  0
 12 13  1  0
 13 14  1  0
 13 15  2  0
 15 16  1  0
 16 17  2  0
 15 18  1  0
 18 19  1  0
 19 20  1  0
 20 21  1  0
 21 22  1  0
 22 23  1  0
 17  3  1  0
 17 11  1  0
 23 18  1  0
M  END
$$$$
147
     RDKit          2D

 17 18  0  0  0  0  0  0  0  0999 V2000
   -3.7500   -3.8971    0.0000 C   0  0  0  0  0  0  0  0  0  0  0  0
   -3.0000   -2.5981    0.0000 C   0  0  0  0  0  0  0  0  0  0  0  0
   -1.5000   -2.5981    0.0000 N   0  0  0  0  0  0  0  0  0  0  0  0
   -0.7500   -3.8971    0.0000 C   0  0  0  0  0  0  0  0  0  0  0  0
    0.7500   -3.8971    0.0000 C   0  0  0  0  0  0  0  0  0  0  0  0
    1.5000   -5.1962    0.0000 C   0  0  0  0  0  0  0  0  0  0  0  0
    3.0000   -5.1962    0.0000 O   0  0  0  0  0  0  0  0  0  0  0  0
    0.7500   -6.4952    0.0000 O   0  0  0  0  0  0  0  0  0  0  0  0
    1.5000   -2.5981    0.0000 C   0  0  0  0  0  0  0  0  0  0  0  0
    3.0000   -2.5981    0.0000 O   0  0  0  0  0  0  0  0  0  0  0  0
    0.7500   -1.2990    0.0000 C   0  0  0  0  0  0  0  0  0  0  0  0
    1.5000    0.0000    0.0000 C   0  0  0  0  0  0  0  0  0  0  0  0
    0.7500    1.2990    0.0000 C   0  0  0  0  0  0  0  0  0  0  0  0
   -0.7500    1.2990    0.0000 C   0  0  0  0  0  0  0  0  0  0  0  0
   -1.5000    2.5981    0.0000 C   0  0  0  0  0  0  0  0  0  0  0  0
   -1.5000    0.0000    0.0000 N   0  0  0  0  0  0  0  0  0  0  0  0
   -0.7500   -1.2990    0.0000 C   0  0  0  0  0  0  0  0  0  0  0  0
  1  2  1  0
  2  3  1  0
  3  4  1  0
  4  5  2  0
  5  6  1  0
  6  7  2  0
  6  8  1  0
  5  9  1  0
  9 10  2  0
  9 11  1  0
 11 12  2  0
 12 13  1  0
 13 14  2  0
 14 15  1  0
 14 16  1  0
 16 17  2  0
 17  3  1  0
 17 11  1  0
M  END
$$$$
675007
     RDKit          2D

 20 21  0  0  0  0  0  0  0  0999 V2000
    3.7500   -1.2990    0.0000 C   0  0  0  0  0  0  0  0  0  0  0  0
    3.0000    0.0000    0.0000 C   0  0  0  0  0  0  0  0  0  0  0  0
    1.5000    0.0000    0.0000 N   0  0  0  0  0  0  0  0  0  0  0  0
    0.7500   -1.2990    0.0000 C   0  0  0  0  0  0  0  0  0  0  0  0
   -0.7500   -1.2990    0.0000 C   0  0  0  0  0  0  0  0  0  0  0  0
   -1.5000    0.0000    0.0000 C   0  0  0  0  0  0  0  0  0  0  0  0
   -0.7500    1.2990    0.0000 N   0  0  0  0  0  0  0  0  0  0  0  0
    0.7500    1.2990    0.0000 C   0  0  0  0  0  0  0  0  0  0  0  0
    1.5000    2.5981    0.0000 O   0  0  0  0  0  0  0  0  0  0  0  0
   -3.0000    0.0000    0.0000 N   0  0  0  0  0  0  0  0  0  0  0  0
   -3.7500    1.2990    0.0000 S   0  0  0  0  0  0  0  0  0  0  0  0
   -2.4510    2.0490    0.0000 O   0  0  0  0  0  0  0  0  0  0  0  0
   -5.0490    0.5490    0.0000 O   0  0  0  0  0  0  0  0  0  0  0  0
   -4.5000    2.5981    0.0000 C   0  0  0  0  0  0  0  0  0  0  0  0
   -3.7500    3.8971    0.0000 C   0  0  0  0  0  0  0  0  0  0  0  0
   -4.5000    5.1962    0.0000 C   0  0  0  0  0  0  0  0  0  0  0  0
   -6.0000    5.1962    0.0000 C   0  0  0  0  0  0  0  0  0  0  0  0
   -6.7500    6.4952    0.0000 N   0  0  0  0  0  0  0  0  0  0  0  0
   -6.7500    3.8971    0.0000 C   0  0  0  0  0  0  0  0  0  0  0  0
   -6.0000    2.5981    0.0000 C   0  0  0  0  0  0  0  0  0  0  0  0
  1  2  1  0
  2  3  1  0
  3  4  1  0
  4  5  2  0
  5  6  1  0
  6  7  2  0
  7  8  1  0
  8  9  2  0
  6 10  1  0
 10 11  1  0
 11 12  2  0
 11 13  2  0
 11 14  1  0
 14 15  2  0
 15 16  1  0
 16 17  2  0
 17 18  1  0
 17 19  1  0
 19 20  2  0
  8  3  1  0
 20 14  1  0
M  END
$$$$
214701
     RDKit          2D

 19 21  0  0  0  0  0  0  0  0999 V2000
   -5.4912    4.7648    0.0000 C   0  0  0  0  0  0  0  0  0  0  0  0
   -4.3764    3.7611    0.0000 C   0  0  0  0  0  0  0  0  0  0  0  0
   -2.9499    4.2246    0.0000 N   0  0  0  0  0  0  0  0  0  0  0  0
   -2.6380    5.6918    0.0000 N   0  0  0  0  0  0  0  0  0  0  0  0
   -1.2114    6.1554    0.0000 C   0  0  0  0  0  0  0  0  0  0  0  0
   -0.8995    7.6226    0.0000 C   0  0  0  0  0  0  0  0  0  0  0  0
   -2.0143    8.6263    0.0000 O   0  0  0  0  0  0  0  0  0  0  0  0
    0.5271    8.0861    0.0000 O   0  0  0  0  0  0  0  0  0  0  0  0
   -0.0967    5.1517    0.0000 C   0  0  0  0  0  0  0  0  0  0  0  0
    1.3299    5.6152    0.0000 O   0  0  0  0  0  0  0  0  0  0  0  0
   -0.4086    3.6844    0.0000 C   0  0  0  0  0  0  0  0  0  0  0  0
    0.7062    2.6807    0.0000 C   0  0  0  0  0  0  0  0  0  0  0  0
    0.3943    1.2135    0.0000 C   0  0  0  0  0  0  0  0  0  0  0  0
    1.2760    0.0000    0.0000 O   0  0  0  0  0  0  0  0  0  0  0  0
    0.3943   -1.2135    0.0000 C   0  0  0  0  0  0  0  0  0  0  0  0
   -1.0323   -0.7500    0.0000 O   0  0  0  0  0  0  0  0  0  0  0  0
   -1.0323    0.7500    0.0000 C   0  0  0  0  0  0  0  0  0  0  0  0
   -2.1470    1.7537    0.0000 C   0  0  0  0  0  0  0  0  0  0  0  0
   -1.8351    3.2209    0.0000 C   0  0  0  0  0  0  0  0  0  0  0  0
  1  2  1  0
  2  3  1  0
  3  4  1  0
  4  5  2  0
  5  6  1  0
  6  7  2  0
  6  8  1  0
  5  9  1  0
  9 10  2  0
  9 11  1  0
 11 12  2  0
 12 13  1  0
 13 14  1  0
 14 15  1  0
 15 16  1  0
 16 17  1  0
 17 18  1  0
 18 19  2  0
 19  3  1  0
 19 11  1  0
 17 13  2  0
M  END
$$$$
675038
     RDKit          2D

 33 36  0  0  0  0  0  0  0  0999 V2000
   -0.7500    6.4952    0.0000 C   0  0  0  0  0  0  0  0  0  0  0  0
   -1.5000    5.1962    0.0000 C   0  0  0  0  0  0  0  0  0  0  0  0
   -3.0000    5.1962    0.0000 N   0  0  0  0  0  0  0  0  0  0  0  0
   -3.7500    3.8971    0.0000 C   0  0  0  0  0  0  0  0  0  0  0  0
   -3.0000    2.5981    0.0000 O   0  0  0  0  0  0  0  0  0  0  0  0
   -5.2500    3.8971    0.0000 N   0  0  0  0  0  0  0  0  0  0  0  0
   -6.0000    5.1962    0.0000 C   0  0  0  0  0  0  0  0  0  0  0  0
   -5.2500    6.4952    0.0000 C   0  0  0  0  0  0  0  0  0  0  0  0
   -6.0000    7.7942    0.0000 C   0  0  0  0  0  0  0  0  0  0  0  0
   -5.2500    9.0933    0.0000 N   0  0  0  0  0  0  0  0  0  0  0  0
   -6.0000   10.3923    0.0000 C   0  0  0  0  0  0  0  0  0  0  0  0
   -3.7500    9.0933    0.0000 C   0  0  0  0  0  0  0  0  0  0  0  0
   -6.0000    2.5981    0.0000 C   0  0  0  0  0  0  0  0  0  0  0  0
   -7.5000    2.5981    0.0000 O   0  0  0  0  0  0  0  0  0  0  0  0
   -5.2500    1.2990    0.0000 C   0  0  0  0  0  0  0  0  0  0  0  0
   -3.7500    1.2990    0.0000 C   0  0  0  0  0  0  0  0  0  0  0  0
   -3.0000    0.0000    0.0000 C   0  0  0  0  0  0  0  0  0  0  0  0
   -3.7500   -1.2990    0.0000 C   0  0  0  0  0  0  0  0  0  0  0  0
   -3.0000   -2.5981    0.0000 C   0  0  0  0  0  0  0  0  0  0  0  0
   -1.5000   -2.5981    0.0000 C   0  0  0  0  0  0  0  0  0  0  0  0
   -0.3853   -3.6018    0.0000 C   0  0  0  0  0  0  0  0  0  0  0  0
    0.9138   -2.8518    0.0000 N   0  0  0  0  0  0  0  0  0  0  0  0
    0.7500   -1.2990    0.0000 C   0  0  0  0  0  0  0  0  0  0  0  0
    1.5000    0.0000    0.0000 C   0  0  0  0  0  0  0  0  0  0  0  0
    0.7500    1.2990    0.0000 C   0  0  0  0  0  0  0  0  0  0  0  0
   -0.7500    1.2990    0.0000 C   0  0  0  0  0  0  0  0  0  0  0  0
   -1.5000    0.0000    0.0000 C   0  0  0  0  0  0  0  0  0  0  0  0
   -0.7500   -1.2990    0.0000 C   0  0  0  0  0  0  0  0  0  0  0  0
   -5.2500   -1.2990    0.0000 N   0  0  0  0  0  0  0  0  0  0  0  0
   -6.0000   -2.5981    0.0000 C   0  0  0  0  0  0  0  0  0  0  0  0
   -7.5000   -2.5981    0.0000 C   0  0  0  0  0  0  0  0  0  0  0  0
   -8.2500   -3.8971    0.0000 C   0  0  0  0  0  0  0  0  0  0  0  0
   -6.0000    0.0000    0.0000 C   0  0  0  0  0  0  0  0  0  0  0  0
  1  2  1  0
  2  3  1  0
  3  4  1  0
  4  5  2  0
  4  6  1  0
  6  7  1  0
  7  8  1  0
  8  9  1  0
  9 10  1  0
 10 11  1  0
 10 12  1  0
  6 13  1  0
 13 14  2  0
 15 13  1  6
 15 16  1  0
 17 16  1  6
 17 18  1  0
 18 19  1  1
 19 20  1  0
 20 21  2  0
 21 22  1  0
 22 23  1  0
 23 24  2  0
 24 25  1  0
 25 26  2  0
 26 27  1  0
 27 28  2  0
 18 29  1  0
 29 30  1  0
 30 31  1  0
 31 32  2  0
 29 33  1  0
 33 15  1  0
 27 17  1  0
 28 20  1  0
 28 23  1  0
M  END
$$$$
675078
     RDKit          2D

 41 43  0  0  0  0  0  0  0  0999 V2000
    2.8360    0.0000    0.0000 C   0  0  0  0  0  0  0  0  0  0  0  0
    4.1351    0.7500    0.0000 C   0  0  0  0  0  0  0  0  0  0  0  0
    5.4341   -0.0000    0.0000 O   0  0  0  0  0  0  0  0  0  0  0  0
   -6.4140   12.3558    0.0000 C   0  0  0  0  0  0  0  0  0  0  0  0
   -5.6640   11.0568    0.0000 C   0  0  0  0  0  0  0  0  0  0  0  0
   -4.1640   11.0568    0.0000 C   0  0  0  0  0  0  0  0  0  0  0  0
   -6.4140    9.7578    0.0000 C   0  0  0  0  0  0  0  0  0  0  0  0
   -5.6640    8.4587    0.0000 N   0  0  0  0  0  0  0  0  0  0  0  0
   -6.4140    7.1597    0.0000 C   0  0  0  0  0  0  0  0  0  0  0  0
   -5.6640    5.8606    0.0000 C   0  0  0  0  0  0  0  0  0  0  0  0
   -4.1640    5.8606    0.0000 O   0  0  0  0  0  0  0  0  0  0  0  0
   -6.4140    4.5616    0.0000 C   0  0  0  0  0  0  0  0  0  0  0  0
   -7.9140    4.5616    0.0000 C   0  0  0  0  0  0  0  0  0  0  0  0
   -8.6640    5.8606    0.0000 C   0  0  0  0  0  0  0  0  0  0  0  0
   -7.9140    7.1597    0.0000 C   0  0  0  0  0  0  0  0  0  0  0  0
   -8.6640    8.4587    0.0000 C   0  0  0  0  0  0  0  0  0  0  0  0
  -10.1640    8.4587    0.0000 C   0  0  0  0  0  0  0  0  0  0  0  0
  -10.9140    7.1597    0.0000 C   0  0  0  0  0  0  0  0  0  0  0  0
  -10.1640    5.8606    0.0000 C   0  0  0  0  0  0  0  0  0  0  0  0
   -5.6640    3.2626    0.0000 N   0  0  0  0  0  0  0  0  0  0  0  0
   -4.1640    3.2626    0.0000 C   0  0  0  0  0  0  0  0  0  0  0  0
   -3.4140    4.5616    0.0000 O   0  0  0  0  0  0  0  0  0  0  0  0
   -3.4140    1.9635    0.0000 O   0  0  0  0  0  0  0  0  0  0  0  0
   -1.9140    1.9635    0.0000 C   0  0  0  0  0  0  0  0  0  0  0  0
   -1.0323    3.1771    0.0000 C   0  0  0  0  0  0  0  0  0  0  0  0
    0.3943    2.7135    0.0000 O   0  0  0  0  0  0  0  0  0  0  0  0
    0.3943    1.2135    0.0000 C   0  0  0  0  0  0  0  0  0  0  0  0
    1.2760    0.0000    0.0000 O   0  0  0  0  0  0  0  0  0  0  0  0
    0.3943   -1.2135    0.0000 C   0  0  0  0  0  0  0  0  0  0  0  0
   -1.0323   -0.7500    0.0000 C   0  0  0  0  0  0  0  0  0  0  0  0
   -1.0323    0.7500    0.0000 C   0  0  0  0  0  0  0  0  0  0  0  0
   -4.1640    8.4587    0.0000 S   0  0  0  0  0  0  0  0  0  0  0  0
   -4.1640    6.9587    0.0000 O   0  0  0  0  0  0  0  0  0  0  0  0
   -4.1640    9.9587    0.0000 O   0  0  0  0  0  0  0  0  0  0  0  0
   -2.6640    8.4587    0.0000 C   0  0  0  0  0  0  0  0  0  0  0  0
   -1.9140    7.1597    0.0000 C   0  0  0  0  0  0  0  0  0  0  0  0
   -0.4140    7.1597    0.0000 C   0  0  0  0  0  0  0  0  0  0  0  0
    0.3360    8.4587    0.0000 C   0  0  0  0  0  0  0  0  0  0  0  0
    1.8360    8.4587    0.0000 N   0  0  0  0  0  0  0  0  0  0  0  0
   -0.4140    9.7578    0.0000 C   0  0  0  0  0  0  0  0  0  0  0  0
   -1.9140    9.7578    0.0000 C   0  0  0  0  0  0  0  0  0  0  0  0
  1  2  1  0
  2  3  1  0
  4  5  1  0
  5  6  1  0
  5  7  1  0
  7  8  1  0
  8  9  1  0
  9 10  1  0
 10 11  1  1
 10 12  1  0
 12 13  1  1
 13 14  1  0
 14 15  2  0
 15 16  1  0
 16 17  2  0
 17 18  1  0
 18 19  2  0
 12 20  1  0
 20 21  1  0
 21 22  2  0
 21 23  1  0
 24 23  1  1
 24 25  1  0
 25 26  1  0
 27 26  1  1
 27 28  1  0
 28 29  1  0
 29 30  1  0
 31 30  1  1
  8 32  1  0
 32 33  2  0
 32 34  2  0
 32 35  1  0
 35 36  2  0
 36 37  1  0
 37 38  2  0
 38 39  1  0
 38 40  1  0
 40 41  2  0
 19 14  1  0
 31 24  1  0
 31 27  1  0
 41 35  1  0
M  END
$$$$
16415
     RDKit          2D

 16 16  0  0  0  0  0  0  0  0999 V2000
    3.7500   -6.4952    0.0000 C   0  0  0  0  0  0  0  0  0  0  0  0
    4.5000   -5.1962    0.0000 C   0  0  0  0  0  0  0  0  0  0  0  0
    3.7500   -3.8971    0.0000 O   0  0  0  0  0  0  0  0  0  0  0  0
    4.5000   -2.5981    0.0000 C   0  0  0  0  0  0  0  0  0  0  0  0
    6.0000   -2.5981    0.0000 O   0  0  0  0  0  0  0  0  0  0  0  0
    3.7500   -1.2990    0.0000 C   0  0  0  0  0  0  0  0  0  0  0  0
    5.0490   -0.5490    0.0000 C   0  0  0  0  0  0  0  0  0  0  0  0
    2.4510   -2.0490    0.0000 C   0  0  0  0  0  0  0  0  0  0  0  0
    3.0000    0.0000    0.0000 O   0  0  0  0  0  0  0  0  0  0  0  0
    1.5000    0.0000    0.0000 C   0  0  0  0  0  0  0  0  0  0  0  0
    0.7500   -1.2990    0.0000 C   0  0  0  0  0  0  0  0  0  0  0  0
   -0.7500   -1.2990    0.0000 C   0  0  0  0  0  0  0  0  0  0  0  0
   -1.5000    0.0000    0.0000 C   0  0  0  0  0  0  0  0  0  0  0  0
   -3.0000    0.0000    0.0000 Cl  0  0  0  0  0  0  0  0  0  0  0  0
   -0.7500    1.2990    0.0000 C   0  0  0  0  0  0  0  0  0  0  0  0
    0.7500    1.2990    0.0000 C   0  0  0  0  0  0  0  0  0  0  0  0
  1  2  1  0
  2  3  1  0
  3  4  1  0
  4  5  2  0
  4  6  1  0
  6  7  1  0
  6  8  1  0
  6  9  1  0
  9 10  1  0
 10 11  2  0
 11 12  1  0
 12 13  2  0
 13 14  1  0
 13 15  1  0
 15 16  2  0
 16 10  1  0
M  END
$$$$
22528
     RDKit          2D

 18 19  0  0  0  0  0  0  0  0999 V2000
   -2.5900   -5.2795    0.0000 C   0  0  0  0  0  0  0  0  0  0  0  0
   -1.1805   -4.7665    0.0000 C   0  0  0  0  0  0  0  0  0  0  0  0
   -0.9200   -3.2893    0.0000 O   0  0  0  0  0  0  0  0  0  0  0  0
    0.4895   -2.7762    0.0000 C   0  0  0  0  0  0  0  0  0  0  0  0
    1.6386   -3.7404    0.0000 O   0  0  0  0  0  0  0  0  0  0  0  0
    0.7500   -1.2990    0.0000 C   0  0  0  0  0  0  0  0  0  0  0  0
    1.5000    0.0000    0.0000 C   0  0  0  0  0  0  0  0  0  0  0  0
    0.7500    1.2990    0.0000 C   0  0  0  0  0  0  0  0  0  0  0  0
   -0.7500    1.2990    0.0000 N   0  0  0  0  0  0  0  0  0  0  0  0
   -1.5000    2.5981    0.0000 C   0  0  0  0  0  0  0  0  0  0  0  0
   -1.5000    0.0000    0.0000 C   0  0  0  0  0  0  0  0  0  0  0  0
   -0.7500   -1.2990    0.0000 C   0  0  0  0  0  0  0  0  0  0  0  0
    2.1595   -1.8121    0.0000 C   0  0  0  0  0  0  0  0  0  0  0  0
    2.4200   -3.2893    0.0000 C   0  0  0  0  0  0  0  0  0  0  0  0
    3.8296   -3.8023    0.0000 C   0  0  0  0  0  0  0  0  0  0  0  0
    4.9786   -2.8381    0.0000 C   0  0  0  0  0  0  0  0  0  0  0  0
    4.7181   -1.3609    0.0000 C   0  0  0  0  0  0  0  0  0  0  0  0
    3.3086   -0.8479    0.0000 C   0  0  0  0  0  0  0  0  0  0  0  0
  1  2  1  0
  2  3  1  0
  3  4  1  0
  4  5  2  0
  4  6  1  0
  6  7  1  0
  7  8  1  0
  8  9  1  0
  9 10  1  0
  9 11  1  0
 11 12  1  0
  6 13  1  0
 13 14  2  0
 14 15  1  0
 15 16  2  0
 16 17  1  0
 17 18  2  0
 12  6  1  0
 18 13  1  0
M  END
$$$$
675245
     RDKit          2D

 34 37  0  0  0  0  0  0  0  0999 V2000
   -2.5900   -5.2795    0.0000 C   0  0  0  0  0  0  0  0  0  0  0  0
   -1.1805   -4.7665    0.0000 C   0  0  0  0  0  0  0  0  0  0  0  0
   -0.9200   -3.2893    0.0000 O   0  0  0  0  0  0  0  0  0  0  0  0
    0.4895   -2.7762    0.0000 C   0  0  0  0  0  0  0  0  0  0  0  0
    1.6386   -3.7404    0.0000 O   0  0  0  0  0  0  0  0  0  0  0  0
    0.7500   -1.2990    0.0000 C   0  0  0  0  0  0  0  0  0  0  0  0
    1.5000    0.0000    0.0000 C   0  0  0  0  0  0  0  0  0  0  0  0
    0.7500    1.2990    0.0000 C   0  0  0  0  0  0  0  0  0  0  0  0
   -0.7500    1.2990    0.0000 N   0  0  0  0  0  0  0  0  0  0  0  0
   -1.5000    2.5981    0.0000 C   0  0  0  0  0  0  0  0  0  0  0  0
   -0.7500    3.8971    0.0000 C   0  0  0  0  0  0  0  0  0  0  0  0
   -1.5000    5.1962    0.0000 C   0  0  0  0  0  0  0  0  0  0  0  0
   -2.7990    4.4462    0.0000 C   0  0  0  0  0  0  0  0  0  0  0  0
   -4.0981    3.6962    0.0000 N   0  0  0  0  0  0  0  0  0  0  0  0
   -2.2500    6.4952    0.0000 C   0  0  0  0  0  0  0  0  0  0  0  0
   -1.5000    7.7942    0.0000 C   0  0  0  0  0  0  0  0  0  0  0  0
   -2.2500    9.0933    0.0000 C   0  0  0  0  0  0  0  0  0  0  0  0
   -3.7500    9.0933    0.0000 C   0  0  0  0  0  0  0  0  0  0  0  0
   -4.5000    7.7942    0.0000 C   0  0  0  0  0  0  0  0  0  0  0  0
   -3.7500    6.4952    0.0000 C   0  0  0  0  0  0  0  0  0  0  0  0
   -0.2010    5.9462    0.0000 C   0  0  0  0  0  0  0  0  0  0  0  0
    1.0981    5.1962    0.0000 C   0  0  0  0  0  0  0  0  0  0  0  0
    2.3971    5.9462    0.0000 C   0  0  0  0  0  0  0  0  0  0  0  0
    2.3971    7.4462    0.0000 C   0  0  0  0  0  0  0  0  0  0  0  0
    1.0981    8.1962    0.0000 C   0  0  0  0  0  0  0  0  0  0  0  0
   -0.2010    7.4462    0.0000 C   0  0  0  0  0  0  0  0  0  0  0  0
   -1.5000    0.0000    0.0000 C   0  0  0  0  0  0  0  0  0  0  0  0
   -0.7500   -1.2990    0.0000 C   0  0  0  0  0  0  0  0  0  0  0  0
    2.1595   -1.8121    0.0000 C   0  0  0  0  0  0  0  0  0  0  0  0
    2.4200   -3.2893    0.0000 C   0  0  0  0  0  0  0  0  0  0  0  0
    3.8296   -3.8023    0.0000 C   0  0  0  0  0  0  0  0  0  0  0  0
    4.9786   -2.8381    0.0000 C   0  0  0  0  0  0  0  0  0  0  0  0
    4.7181   -1.3609    0.0000 C   0  0  0  0  0  0  0  0  0  0  0  0
    3.3086   -0.8479    0.0000 C   0  0  0  0  0  0  0  0  0  0  0  0
  1  2  1  0
  2  3  1  0
  3  4  1  0
  4  5  2  0
  4  6  1  0
  6  7  1  0
  7  8  1  0
  8  9  1  0
  9 10  1  0
 10 11  1  0
 11 12  1  0
 12 13  1  0
 13 14  3  0
 12 15  1  0
 15 16  2  0
 16 17  1  0
 17 18  2  0
 18 19  1  0
 19 20  2  0
 12 21  1  0
 21 22  2  0
 22 23  1  0
 23 24  2  0
 24 25  1  0
 25 26  2  0
  9 27  1  0
 27 28  1  0
  6 29  1  0
 29 30  2  0
 30 31  1  0
 31 32  2  0
 32 33  1  0
 33 34  2  0
 28  6  1  0
 20 15  1  0
 26 21  1  0
 34 29  1  0
M  END
$$$$
675298
     RDKit          2D

 26 28  0  0  0  0  0  0  0  0999 V2000
   -2.5900   -5.2795    0.0000 C   0  0  0  0  0  0  0  0  0  0  0  0
   -1.1805   -4.7665    0.0000 C   0  0  0  0  0  0  0  0  0  0  0  0
   -0.9200   -3.2893    0.0000 O   0  0  0  0  0  0  0  0  0  0  0  0
    0.4895   -2.7762    0.0000 C   0  0  0  0  0  0  0  0  0  0  0  0
    1.6386   -3.7404    0.0000 O   0  0  0  0  0  0  0  0  0  0  0  0
    0.7500   -1.2990    0.0000 C   0  0  0  0  0  0  0  0  0  0  0  0
    1.5000    0.0000    0.0000 C   0  0  0  0  0  0  0  0  0  0  0  0
    0.7500    1.2990    0.0000 C   0  0  0  0  0  0  0  0  0  0  0  0
   -0.7500    1.2990    0.0000 N   0  0  0  0  0  0  0  0  0  0  0  0
   -1.5000    2.5981    0.0000 C   0  0  0  0  0  0  0  0  0  0  0  0
   -0.7500    3.8971    0.0000 C   0  0  0  0  0  0  0  0  0  0  0  0
   -1.5000    5.1962    0.0000 C   0  0  0  0  0  0  0  0  0  0  0  0
   -0.7500    6.4952    0.0000 C   0  0  0  0  0  0  0  0  0  0  0  0
   -1.5000    7.7942    0.0000 C   0  0  0  0  0  0  0  0  0  0  0  0
   -3.0000    7.7942    0.0000 C   0  0  0  0  0  0  0  0  0  0  0  0
   -3.7500    9.0933    0.0000 N   0  0  0  0  0  0  0  0  0  0  0  0
   -3.7500    6.4952    0.0000 C   0  0  0  0  0  0  0  0  0  0  0  0
   -3.0000    5.1962    0.0000 C   0  0  0  0  0  0  0  0  0  0  0  0
   -1.5000    0.0000    0.0000 C   0  0  0  0  0  0  0  0  0  0  0  0
   -0.7500   -1.2990    0.0000 C   0  0  0  0  0  0  0  0  0  0  0  0
    2.1595   -1.8121    0.0000 C   0  0  0  0  0  0  0  0  0  0  0  0
    2.4200   -3.2893    0.0000 C   0  0  0  0  0  0  0  0  0  0  0  0
    3.8296   -3.8023    0.0000 C   0  0  0  0  0  0  0  0  0  0  0  0
    4.9786   -2.8381    0.0000 C   0  0  0  0  0  0  0  0  0  0  0  0
    4.7181   -1.3609    0.0000 C   0  0  0  0  0  0  0  0  0  0  0  0
    3.3086   -0.8479    0.0000 C   0  0  0  0  0  0  0  0  0  0  0  0
  1  2  1  0
  2  3  1  0
  3  4  1  0
  4  5  2  0
  4  6  1  0
  6  7  1  0
  7  8  1  0
  8  9  1  0
  9 10  1  0
 10 11  1  0
 11 12  1  0
 12 13  2  0
 13 14  1  0
 14 15  2  0
 15 16  1  0
 15 17  1  0
 17 18  2  0
  9 19  1  0
 19 20  1  0
  6 21  1  0
 21 22  2  0
 22 23  1  0
 23 24  2  0
 24 25  1  0
 25 26  2  0
 20  6  1  0
 18 12  1  0
 26 21  1  0
M  END
$$$$
405365
     RDKit          2D

 25 26  0  0  0  0  0  0  0  0999 V2000
    6.0000   -2.5981    0.0000 C   0  0  0  0  0  0  0  0  0  0  0  0
    5.2500   -1.2990    0.0000 C   0  0  0  0  0  0  0  0  0  0  0  0
    3.7500   -1.2990    0.0000 O   0  0  0  0  0  0  0  0  0  0  0  0
    3.0000    0.0000    0.0000 C   0  0  0  0  0  0  0  0  0  0  0  0
    3.7500    1.2990    0.0000 O   0  0  0  0  0  0  0  0  0  0  0  0
    1.5000    0.0000    0.0000 C   0  0  0  0  0  0  0  0  0  0  0  0
    0.7500   -1.2990    0.0000 C   0  0  0  0  0  0  0  0  0  0  0  0
    1.5000   -2.5981    0.0000 C   0  0  0  0  0  0  0  0  0  0  0  0
   -0.7500   -1.2990    0.0000 N   0  0  0  0  0  0  0  0  0  0  0  0
   -1.5000    0.0000    0.0000 C   0  0  0  0  0  0  0  0  0  0  0  0
   -0.7500    1.2990    0.0000 C   0  0  0  0  0  0  0  0  0  0  0  0
    0.7500    1.2990    0.0000 C   0  0  0  0  0  0  0  0  0  0  0  0
    1.5000    2.5981    0.0000 C   0  0  0  0  0  0  0  0  0  0  0  0
    3.0000    2.5981    0.0000 C   0  0  0  0  0  0  0  0  0  0  0  0
    3.7500    3.8971    0.0000 C   0  0  0  0  0  0  0  0  0  0  0  0
    3.0000    5.1962    0.0000 C   0  0  0  0  0  0  0  0  0  0  0  0
    1.5000    5.1962    0.0000 C   0  0  0  0  0  0  0  0  0  0  0  0
    0.7500    6.4952    0.0000 Cl  0  0  0  0  0  0  0  0  0  0  0  0
    0.7500    3.8971    0.0000 C   0  0  0  0  0  0  0  0  0  0  0  0
   -0.2268    4.0171    0.0000 Cl  0  0  0  0  0  0  0  0  0  0  0  0
   -1.5000    2.5981    0.0000 C   0  0  0  0  0  0  0  0  0  0  0  0
   -1.1155    3.5040    0.0000 O   0  0  0  0  0  0  0  0  0  0  0  0
   -3.0000    2.5981    0.0000 O   0  0  0  0  0  0  0  0  0  0  0  0
   -3.7500    3.8971    0.0000 C   0  0  0  0  0  0  0  0  0  0  0  0
   -3.0000    0.0000    0.0000 C   0  0  0  0  0  0  0  0  0  0  0  0
  1  2  1  0
  2  3  1  0
  3  4  1  0
  4  5  2  0
  4  6  1  0
  6  7  2  0
  7  8  1  0
  7  9  1  0
  9 10  1  0
 10 11  2  0
 11 12  1  0
 12 13  1  0
 13 14  2  0
 14 15  1  0
 15 16  2  0
 16 17  1  0
 17 18  1  0
 17 19  2  0
 19 20  1  0
 11 21  1  0
 21 22  2  0
 21 23  1  0
 23 24  1  0
 10 25  1  0
 12  6  1  0
 19 13  1  0
M  END
$$$$
418414
     RDKit          2D

 28 29  0  0  0  0  0  0  0  0999 V2000
    6.0000   -2.5981    0.0000 C   0  0  0  0  0  0  0  0  0  0  0  0
    5.2500   -1.2990    0.0000 C   0  0  0  0  0  0  0  0  0  0  0  0
    3.7500   -1.2990    0.0000 O   0  0  0  0  0  0  0  0  0  0  0  0
    3.0000    0.0000    0.0000 C   0  0  0  0  0  0  0  0  0  0  0  0
    3.7500    1.2990    0.0000 O   0  0  0  0  0  0  0  0  0  0  0  0
    1.5000    0.0000    0.0000 C   0  0  0  0  0  0  0  0  0  0  0  0
    0.7500   -1.2990    0.0000 C   0  0  0  0  0  0  0  0  0  0  0  0
    1.5000   -2.5981    0.0000 C   0  0  0  0  0  0  0  0  0  0  0  0
    0.7500   -3.8971    0.0000 O   0  0  0  0  0  0  0  0  0  0  0  0
    1.5000   -5.1962    0.0000 C   0  0  0  0  0  0  0  0  0  0  0  0
    0.7500   -6.4952    0.0000 C   0  0  0  0  0  0  0  0  0  0  0  0
    1.5000   -7.7942    0.0000 N   0  0  0  0  0  0  0  0  0  0  0  0
   -0.7500   -1.2990    0.0000 N   0  0  0  0  0  0  0  0  0  0  0  0
   -1.5000    0.0000    0.0000 C   0  0  0  0  0  0  0  0  0  0  0  0
   -0.7500    1.2990    0.0000 C   0  0  0  0  0  0  0  0  0  0  0  0
    0.7500    1.2990    0.0000 C   0  0  0  0  0  0  0  0  0  0  0  0
    1.5000    2.5981    0.0000 C   0  0  0  0  0  0  0  0  0  0  0  0
    3.0000    2.5981    0.0000 C   0  0  0  0  0  0  0  0  0  0  0  0
    3.7500    3.8971    0.0000 C   0  0  0  0  0  0  0  0  0  0  0  0
    3.0000    5.1962    0.0000 C   0  0  0  0  0  0  0  0  0  0  0  0
    1.5000    5.1962    0.0000 C   0  0  0  0  0  0  0  0  0  0  0  0
    0.7500    3.8971    0.0000 C   0  0  0  0  0  0  0  0  0  0  0  0
   -0.2268    4.0171    0.0000 Cl  0  0  0  0  0  0  0  0  0  0  0  0
   -1.5000    2.5981    0.0000 C   0  0  0  0  0  0  0  0  0  0  0  0
   -1.1155    3.5040    0.0000 O   0  0  0  0  0  0  0  0  0  0  0  0
   -3.0000    2.5981    0.0000 O   0  0  0  0  0  0  0  0  0  0  0  0
   -3.7500    3.8971    0.0000 C   0  0  0  0  0  0  0  0  0  0  0  0
   -3.0000    0.0000    0.0000 C   0  0  0  0  0  0  0  0  0  0  0  0
  1  2  1  0
  2  3  1  0
  3  4  1  0
  4  5  2  0
  4  6  1  0
  6  7  2  0
  7  8  1  0
  8  9  1  0
  9 10  1  0
 10 11  1  0
 11 12  1  0
  7 13  1  0
 13 14  1  0
 14 15  2  0
 15 16  1  0
 16 17  1  0
 17 18  2  0
 18 19  1  0
 19 20  2  0
 20 21  1  0
 21 22  2  0
 22 23  1  0
 15 24  1  0
 24 25  2  0
 24 26  1  0
 26 27  1  0
 14 28  1  0
 16  6  1  0
 22 17  1  0
M  END
$$$$
674935
     RDKit          2D

 36 36  0  0  0  0  0  0  0  0999 V2000
    6.0000   -2.5981    0.0000 C   0  0  0  0  0  0  0  0  0  0  0  0
    5.2500   -1.2990    0.0000 C   0  0  0  0  0  0  0  0  0  0  0  0
    3.7500   -1.2990    0.0000 O   0  0  0  0  0  0  0  0  0  0  0  0
    3.0000    0.0000    0.0000 C   0  0  0  0  0  0  0  0  0  0  0  0
    3.7500    1.2990    0.0000 O   0  0  0  0  0  0  0  0  0  0  0  0
    1.5000    0.0000    0.0000 C   0  0  0  0  0  0  0  0  0  0  0  0
    0.7500   -1.2990    0.0000 C   0  0  0  0  0  0  0  0  0  0  0  0
    1.5000   -2.5981    0.0000 C   0  0  0  0  0  0  0  0  0  0  0  0
    0.7500   -3.8971    0.0000 O   0  0  0  0  0  0  0  0  0  0  0  0
    1.5000   -5.1962    0.0000 C   0  0  0  0  0  0  0  0  0  0  0  0
    0.7500   -6.4952    0.0000 C   0  0  0  0  0  0  0  0  0  0  0  0
    1.5000   -7.7942    0.0000 N   0  0  0  0  0  0  0  0  0  0  0  0
   -0.7500   -1.2990    0.0000 N   0  0  0  0  0  0  0  0  0  0  0  0
   -1.5000    0.0000    0.0000 C   0  0  0  0  0  0  0  0  0  0  0  0
   -0.7500    1.2990    0.0000 C   0  0  0  0  0  0  0  0  0  0  0  0
    0.7500    1.2990    0.0000 C   0  0  0  0  0  0  0  0  0  0  0  0
    1.5000    2.5981    0.0000 C   0  0  0  0  0  0  0  0  0  0  0  0
    3.0000    2.5981    0.0000 C   0  0  0  0  0  0  0  0  0  0  0  0
    3.7500    3.8971    0.0000 C   0  0  0  0  0  0  0  0  0  0  0  0
    3.0000    5.1962    0.0000 C   0  0  0  0  0  0  0  0  0  0  0  0
    1.5000    5.1962    0.0000 C   0  0  0  0  0  0  0  0  0  0  0  0
    0.7500    3.8971    0.0000 C   0  0  0  0  0  0  0  0  0  0  0  0
   -0.2268    4.0171    0.0000 Cl  0  0  0  0  0  0  0  0  0  0  0  0
   -1.5000    2.5981    0.0000 C   0  0  0  0  0  0  0  0  0  0  0  0
   -1.1155    3.5040    0.0000 O   0  0  0  0  0  0  0  0  0  0  0  0
   -3.0000    2.5981    0.0000 O   0  0  0  0  0  0  0  0  0  0  0  0
   -3.7500    3.8971    0.0000 C   0  0  0  0  0  0  0  0  0  0  0  0
   -3.0000    0.0000    0.0000 C   0  0  0  0  0  0  0  0  0  0  0  0
    7.0000   -1.2990    0.0000 O   0  0  0  0  0  0  0  0  0  0  0  0
    8.5000   -1.2990    0.0000 C   0  0  0  0  0  0  0  0  0  0  0  0
    9.2500   -2.5981    0.0000 O   0  0  0  0  0  0  0  0  0  0  0  0
    9.2500    0.0000    0.0000 C   0  0  0  0  0  0  0  0  0  0  0  0
   10.7500    0.0000    0.0000 C   0  0  0  0  0  0  0  0  0  0  0  0
   11.5000   -1.2990    0.0000 C   0  0  0  0  0  0  0  0  0  0  0  0
   10.7500   -2.5981    0.0000 O   0  0  0  0  0  0  0  0  0  0  0  0
   13.0000   -1.2990    0.0000 O   0  0  0  0  0  0  0  0  0  0  0  0
  1  2  1  0
  2  3  1  0
  3  4  1  0
  4  5  2  0
  4  6  1  0
  6  7  2  0
  7  8  1  0
  8  9  1  0
  9 10  1  0
 10 11  1  0
 11 12  1  0
  7 13  1  0
 13 14  1  0
 14 15  2  0
 15 16  1  0
 16 17  1  0
 17 18  2  0
 18 19  1  0
 19 20  2  0
 20 21  1  0
 21 22  2  0
 22 23  1  0
 15 24  1  0
 24 25  2  0
 24 26  1  0
 26 27  1  0
 14 28  1  0
 29 30  1  0
 30 31  2  0
 30 32  1  0
 32 33  2  0
 33 34  1  0
 34 35  2  0
 34 36  1  0
 16  6  1  0
 22 17  1  0
M  END
$$$$
674353
     RDKit          2D

 38 39  0  0  0  0  0  0  0  0999 V2000
    6.0000   -2.5981    0.0000 C   0  0  0  0  0  0  0  0  0  0  0  0
    5.2500   -1.2990    0.0000 C   0  0  0  0  0  0  0  0  0  0  0  0
    3.7500   -1.2990    0.0000 O   0  0  0  0  0  0  0  0  0  0  0  0
    3.0000    0.0000    0.0000 C   0  0  0  0  0  0  0  0  0  0  0  0
    3.7500    1.2990    0.0000 O   0  0  0  0  0  0  0  0  0  0  0  0
    1.5000    0.0000    0.0000 C   0  0  0  0  0  0  0  0  0  0  0  0
    0.7500   -1.2990    0.0000 C   0  0  0  0  0  0  0  0  0  0  0  0
    1.5000   -2.5981    0.0000 C   0  0  0  0  0  0  0  0  0  0  0  0
    0.7500   -3.8971    0.0000 O   0  0  0  0  0  0  0  0  0  0  0  0
    1.5000   -5.1962    0.0000 C   0  0  0  0  0  0  0  0  0  0  0  0
    0.7500   -6.4952    0.0000 C   0  0  0  0  0  0  0  0  0  0  0  0
    1.5000   -7.7942    0.0000 N   0  0  0  0  0  0  0  0  0  0  0  0
   -0.7500   -1.2990    0.0000 N   0  0  0  0  0  0  0  0  0  0  0  0
   -1.5000    0.0000    0.0000 C   0  0  0  0  0  0  0  0  0  0  0  0
   -0.7500    1.2990    0.0000 C   0  0  0  0  0  0  0  0  0  0  0  0
    0.7500    1.2990    0.0000 C   0  0  0  0  0  0  0  0  0  0  0  0
    1.5000    2.5981    0.0000 C   0  0  0  0  0  0  0  0  0  0  0  0
    3.0000    2.5981    0.0000 C   0  0  0  0  0  0  0  0  0  0  0  0
    3.7500    3.8971    0.0000 C   0  0  0  0  0  0  0  0  0  0  0  0
    3.0000    5.1962    0.0000 C   0  0  0  0  0  0  0  0  0  0  0  0
    1.5000    5.1962    0.0000 C   0  0  0  0  0  0  0  0  0  0  0  0
    0.7500    3.8971    0.0000 C   0  0  0  0  0  0  0  0  0  0  0  0
   -0.2268    4.0171    0.0000 Cl  0  0  0  0  0  0  0  0  0  0  0  0
   -1.5000    2.5981    0.0000 C   0  0  0  0  0  0  0  0  0  0  0  0
   -1.1155    3.5040    0.0000 O   0  0  0  0  0  0  0  0  0  0  0  0
   -3.0000    2.5981    0.0000 O   0  0  0  0  0  0  0  0  0  0  0  0
   -3.7500    3.8971    0.0000 C   0  0  0  0  0  0  0  0  0  0  0  0
   -3.0000    0.0000    0.0000 C   0  0  0  0  0  0  0  0  0  0  0  0
   13.0000    0.0000    0.0000 O   0  0  0  0  0  0  0  0  0  0  0  0
   11.5000    0.0000    0.0000 S   0  0  0  0  0  0  0  0  0  0  0  0
   11.5000   -1.5000    0.0000 O   0  0  0  0  0  0  0  0  0  0  0  0
   11.5000    1.5000    0.0000 O   0  0  0  0  0  0  0  0  0  0  0  0
   10.0000    0.0000    0.0000 C   0  0  0  0  0  0  0  0  0  0  0  0
    9.2500   -1.2990    0.0000 C   0  0  0  0  0  0  0  0  0  0  0  0
    7.7500   -1.2990    0.0000 C   0  0  0  0  0  0  0  0  0  0  0  0
    7.0000    0.0000    0.0000 C   0  0  0  0  0  0  0  0  0  0  0  0
    7.7500    1.2990    0.0000 C   0  0  0  0  0  0  0  0  0  0  0  0
    9.2500    1.2990    0.0000 C   0  0  0  0  0  0  0  0  0  0  0  0
  1  2  1  0
  2  3  1  0
  3  4  1  0
  4  5  2  0
  4  6  1  0
  6  7  2  0
  7  8  1  0
  8  9  1  0
  9 10  1  0
 10 11  1  0
 11 12  1  0
  7 13  1  0
 13 14  1  0
 14 15  2  0
 15 16  1  0
 16 17  1  0
 17 18  2  0
 18 19  1  0
 19 20  2  0
 20 21  1  0
 21 22  2  0
 22 23  1  0
 15 24  1  0
 24 25  2  0
 24 26  1  0
 26 27  1  0
 14 28  1  0
 29 30  1  0
 30 31  2  0
 30 32  2  0
 30 33  1  0
 33 34  2  0
 34 35  1  0
 35 36  2  0
 36 37  1  0
 37 38  2  0
 16  6  1  0
 22 17  1  0
 38 33  1  0
M  END
$$$$
228121
     RDKit          2D

 22 22  0  0  0  0  0  0  0  0999 V2000
    6.0000   -2.5981    0.0000 C   0  0  0  0  0  0  0  0  0  0  0  0
    5.2500   -1.2990    0.0000 C   0  0  0  0  0  0  0  0  0  0  0  0
    3.7500   -1.2990    0.0000 O   0  0  0  0  0  0  0  0  0  0  0  0
    3.0000    0.0000    0.0000 C   0  0  0  0  0  0  0  0  0  0  0  0
    3.7500    1.2990    0.0000 O   0  0  0  0  0  0  0  0  0  0  0  0
    1.5000    0.0000    0.0000 C   0  0  0  0  0  0  0  0  0  0  0  0
    0.7500   -1.2990    0.0000 C   0  0  0  0  0  0  0  0  0  0  0  0
   -0.7500   -1.2990    0.0000 C   0  0  0  0  0  0  0  0  0  0  0  0
   -1.5000   -2.5981    0.0000 O   0  0  0  0  0  0  0  0  0  0  0  0
   -0.7500   -3.8971    0.0000 C   0  0  0  0  0  0  0  0  0  0  0  0
   -1.5000   -5.1962    0.0000 C   0  0  0  0  0  0  0  0  0  0  0  0
   -0.7500   -6.4952    0.0000 C   0  0  0  0  0  0  0  0  0  0  0  0
    0.7500   -3.8971    0.0000 C   0  0  0  0  0  0  0  0  0  0  0  0
    1.5000   -5.1962    0.0000 C   0  0  0  0  0  0  0  0  0  0  0  0
   -1.5000    0.0000    0.0000 C   0  0  0  0  0  0  0  0  0  0  0  0
   -3.0000    0.0000    0.0000 N   0  0  0  0  0  0  0  0  0  0  0  0
   -3.7500   -1.2990    0.0000 C   0  0  0  0  0  0  0  0  0  0  0  0
   -3.0000   -2.5981    0.0000 O   0  0  0  0  0  0  0  0  0  0  0  0
   -5.2500   -1.2990    0.0000 C   0  0  0  0  0  0  0  0  0  0  0  0
   -0.7500    1.2990    0.0000 C   0  0  0  0  0  0  0  0  0  0  0  0
   -1.5000    2.5981    0.0000 N   0  0  0  0  0  0  0  0  0  0  0  0
    0.7500    1.2990    0.0000 C   0  0  0  0  0  0  0  0  0  0  0  0
  1  2  1  0
  2  3  1  0
  3  4  1  0
  4  5  2  0
  4  6  1  0
  6  7  2  0
  7  8  1  0
  8  9  1  1
  9 10  1  0
 10 11  1  0
 11 12  1  0
 10 13  1  0
 13 14  1  0
  8 15  1  0
 15 16  1  6
 16 17  1  0
 17 18  2  0
 17 19  1  0
 15 20  1  0
 20 21  1  1
 20 22  1  0
 22  6  1  0
M  END
$$$$
674291
     RDKit          2D

 27 26  0  0  0  0  0  0  0  0999 V2000
    6.0000   -2.5981    0.0000 C   0  0  0  0  0  0  0  0  0  0  0  0
    5.2500   -1.2990    0.0000 C   0  0  0  0  0  0  0  0  0  0  0  0
    3.7500   -1.2990    0.0000 O   0  0  0  0  0  0  0  0  0  0  0  0
    3.0000    0.0000    0.0000 C   0  0  0  0  0  0  0  0  0  0  0  0
    3.7500    1.2990    0.0000 O   0  0  0  0  0  0  0  0  0  0  0  0
    1.5000    0.0000    0.0000 C   0  0  0  0  0  0  0  0  0  0  0  0
    0.7500   -1.2990    0.0000 C   0  0  0  0  0  0  0  0  0  0  0  0
   -0.7500   -1.2990    0.0000 C   0  0  0  0  0  0  0  0  0  0  0  0
   -1.5000   -2.5981    0.0000 O   0  0  0  0  0  0  0  0  0  0  0  0
   -0.7500   -3.8971    0.0000 C   0  0  0  0  0  0  0  0  0  0  0  0
   -1.5000   -5.1962    0.0000 C   0  0  0  0  0  0  0  0  0  0  0  0
   -0.7500   -6.4952    0.0000 C   0  0  0  0  0  0  0  0  0  0  0  0
    0.7500   -3.8971    0.0000 C   0  0  0  0  0  0  0  0  0  0  0  0
    1.5000   -5.1962    0.0000 C   0  0  0  0  0  0  0  0  0  0  0  0
   -1.5000    0.0000    0.0000 C   0  0  0  0  0  0  0  0  0  0  0  0
   -3.0000    0.0000    0.0000 N   0  0  0  0  0  0  0  0  0  0  0  0
   -3.7500   -1.2990    0.0000 C   0  0  0  0  0  0  0  0  0  0  0  0
   -3.0000   -2.5981    0.0000 O   0  0  0  0  0  0  0  0  0  0  0  0
   -5.2500   -1.2990    0.0000 C   0  0  0  0  0  0  0  0  0  0  0  0
   -0.7500    1.2990    0.0000 C   0  0  0  0  0  0  0  0  0  0  0  0
   -1.5000    2.5981    0.0000 N   0  0  0  0  0  0  0  0  0  0  0  0
    0.7500    1.2990    0.0000 C   0  0  0  0  0  0  0  0  0  0  0  0
    0.0000    4.1471    0.0000 O   0  0  0  0  0  0  0  0  0  0  0  0
    1.2990    4.8971    0.0000 P   0  0  0  0  0  0  0  0  0  0  0  0
    2.5981    5.6471    0.0000 O   0  0  0  0  0  0  0  0  0  0  0  0
    0.5490    6.1962    0.0000 O   0  0  0  0  0  0  0  0  0  0  0  0
    2.0490    3.5981    0.0000 O   0  0  0  0  0  0  0  0  0  0  0  0
  1  2  1  0
  2  3  1  0
  3  4  1  0
  4  5  2  0
  4  6  1  0
  6  7  2  0
  7  8  1  0
  8  9  1  1
  9 10  1  0
 10 11  1  0
 11 12  1  0
 10 13  1  0
 13 14  1  0
  8 15  1  0
 15 16  1  6
 16 17  1  0
 17 18  2  0
 17 19  1  0
 15 20  1  0
 20 21  1  1
 20 22  1  0
 23 24  1  0
 24 25  2  0
 24 26  1  0
 24 27  1  0
 22  6  1  0
M  END
$$$$
674639
     RDKit          2D

 60 62  0  0  0  0  0  0  0  0999 V2000
   -7.1024   -5.2306    0.0000 C   0  0  0  0  0  0  0  0  0  0  0  0
   -5.8630   -4.3856    0.0000 C   0  0  0  0  0  0  0  0  0  0  0  0
   -4.5116   -5.0365    0.0000 O   0  0  0  0  0  0  0  0  0  0  0  0
   -3.2722   -4.1915    0.0000 C   0  0  0  0  0  0  0  0  0  0  0  0
   -3.3318   -3.3966    0.0000 O   0  0  0  0  0  0  0  0  0  0  0  0
   -1.9207   -4.8423    0.0000 C   0  0  0  0  0  0  0  0  0  0  0  0
   -0.6814   -3.9973    0.0000 C   0  0  0  0  0  0  0  0  0  0  0  0
    0.6701   -4.6482    0.0000 C   0  0  0  0  0  0  0  0  0  0  0  0
    0.5990   -6.1465    0.0000 O   0  0  0  0  0  0  0  0  0  0  0  0
    1.9094   -3.8032    0.0000 O   0  0  0  0  0  0  0  0  0  0  0  0
    3.2609   -4.4540    0.0000 C   0  0  0  0  0  0  0  0  0  0  0  0
    4.5002   -3.6090    0.0000 C   0  0  0  0  0  0  0  0  0  0  0  0
    4.3881   -2.1132    0.0000 O   0  0  0  0  0  0  0  0  0  0  0  0
    3.0367   -1.4624    0.0000 C   0  0  0  0  0  0  0  0  0  0  0  0
    3.3705    0.0000    0.0000 C   0  0  0  0  0  0  0  0  0  0  0  0
    4.8705    0.0000    0.0000 C   0  0  0  0  0  0  0  0  0  0  0  0
    3.0367    1.4624    0.0000 C   0  0  0  0  0  0  0  0  0  0  0  0
    4.3881    2.1132    0.0000 O   0  0  0  0  0  0  0  0  0  0  0  0
    4.5002    3.6090    0.0000 C   0  0  0  0  0  0  0  0  0  0  0  0
    5.8517    4.2598    0.0000 C   0  0  0  0  0  0  0  0  0  0  0  0
    5.9638    5.7557    0.0000 C   0  0  0  0  0  0  0  0  0  0  0  0
    6.5807    7.1229    0.0000 C   0  0  0  0  0  0  0  0  0  0  0  0
    7.4174    5.3855    0.0000 O   0  0  0  0  0  0  0  0  0  0  0  0
    8.4648    6.4593    0.0000 C   0  0  0  0  0  0  0  0  0  0  0  0
    4.7244    6.6006    0.0000 C   0  0  0  0  0  0  0  0  0  0  0  0
    4.8365    8.0964    0.0000 O   0  0  0  0  0  0  0  0  0  0  0  0
    3.3730    5.9498    0.0000 C   0  0  0  0  0  0  0  0  0  0  0  0
    2.1336    6.7948    0.0000 C   0  0  0  0  0  0  0  0  0  0  0  0
    3.2609    4.4540    0.0000 O   0  0  0  0  0  0  0  0  0  0  0  0
    2.1015    2.6351    0.0000 C   0  0  0  0  0  0  0  0  0  0  0  0
    2.6628    3.8629    0.0000 C   0  0  0  0  0  0  0  0  0  0  0  0
    0.7500    3.2860    0.0000 C   0  0  0  0  0  0  0  0  0  0  0  0
    1.0838    4.7484    0.0000 O   0  0  0  0  0  0  0  0  0  0  0  0
   -0.7500    3.2860    0.0000 O   0  0  0  0  0  0  0  0  0  0  0  0
   -2.1015    2.6351    0.0000 C   0  0  0  0  0  0  0  0  0  0  0  0
   -3.0367    3.8079    0.0000 C   0  0  0  0  0  0  0  0  0  0  0  0
   -2.4887    5.2042    0.0000 C   0  0  0  0  0  0  0  0  0  0  0  0
   -3.0367    1.4624    0.0000 C   0  0  0  0  0  0  0  0  0  0  0  0
   -4.5199    1.2388    0.0000 C   0  0  0  0  0  0  0  0  0  0  0  0
   -3.7867    2.7614    0.0000 O   0  0  0  0  0  0  0  0  0  0  0  0
   -3.3705    0.0000    0.0000 C   0  0  0  0  0  0  0  0  0  0  0  0
   -4.8705    0.0000    0.0000 O   0  0  0  0  0  0  0  0  0  0  0  0
   -3.0367   -1.4624    0.0000 C   0  0  0  0  0  0  0  0  0  0  0  0
   -4.3881   -2.1132    0.0000 C   0  0  0  0  0  0  0  0  0  0  0  0
   -2.1015   -2.6351    0.0000 C   0  0  0  0  0  0  0  0  0  0  0  0
   -2.7345   -3.1196    0.0000 O   0  0  0  0  0  0  0  0  0  0  0  0
   -0.7500   -3.2860    0.0000 C   0  0  0  0  0  0  0  0  0  0  0  0
   -1.0838   -4.7484    0.0000 C   0  0  0  0  0  0  0  0  0  0  0  0
    0.7500   -3.2860    0.0000 C   0  0  0  0  0  0  0  0  0  0  0  0
    2.1015   -2.6351    0.0000 C   0  0  0  0  0  0  0  0  0  0  0  0
    3.5348   -3.0773    0.0000 C   0  0  0  0  0  0  0  0  0  0  0  0
    1.8483   -4.1136    0.0000 O   0  0  0  0  0  0  0  0  0  0  0  0
    5.8517   -4.2598    0.0000 O   0  0  0  0  0  0  0  0  0  0  0  0
    5.9638   -5.7557    0.0000 C   0  0  0  0  0  0  0  0  0  0  0  0
    7.3152   -6.4065    0.0000 C   0  0  0  0  0  0  0  0  0  0  0  0
    4.7244   -6.6006    0.0000 C   0  0  0  0  0  0  0  0  0  0  0  0
    3.3730   -5.9498    0.0000 C   0  0  0  0  0  0  0  0  0  0  0  0
    2.1336   -6.7948    0.0000 N   0  0  0  0  0  0  0  0  0  0  0  0
    2.2457   -8.2906    0.0000 C   0  0  0  0  0  0  0  0  0  0  0  0
    0.7129   -6.3136    0.0000 C   0  0  0  0  0  0  0  0  0  0  0  0
  1  2  1  0
  2  3  1  0
  3  4  1  0
  4  5  2  0
  4  6  1  0
  6  7  1  0
  7  8  1  0
  8  9  2  0
  8 10  1  0
 11 10  1  1
 11 12  1  0
 12 13  1  6
 14 13  1  1
 14 15  1  0
 15 16  1  6
 15 17  1  0
 17 18  1  1
 19 18  1  6
 19 20  1  0
 20 21  1  0
 21 22  1  1
 21 23  1  0
 23 24  1  0
 21 25  1  0
 25 26  1  6
 25 27  1  0
 27 28  1  1
 27 29  1  0
 17 30  1  0
 30 31  1  6
 30 32  1  0
 32 33  2  0
 32 34  1  0
 34 35  1  0
 35 36  1  1
 36 37  1  0
 35 38  1  0
 38 39  1  1
 38 40  1  0
 38 41  1  0
 41 42  1  1
 41 43  1  0
 43 44  1  6
 43 45  1  0
 45 46  2  0
 45 47  1  0
 47 48  1  1
 47 49  1  0
 49 50  1  0
 50 51  1  1
 50 52  1  0
 12 53  1  0
 53 54  1  0
 54 55  1  6
 54 56  1  0
 56 57  1  0
 57 58  1  6
 58 59  1  0
 58 60  1  0
 57 11  1  0
 50 14  1  0
 29 19  1  0
M  END
$$$$
1369605
     RDKit          2D

 24 23  0  0  0  0  0  0  0  0999 V2000
   -7.5000   -5.1962    0.0000 C   0  0  0  0  0  0  0  0  0  0  0  0
   -6.7500   -3.8971    0.0000 C   0  0  0  0  0  0  0  0  0  0  0  0
   -5.2500   -3.8971    0.0000 O   0  0  0  0  0  0  0  0  0  0  0  0
   -4.5000   -2.5981    0.0000 C   0  0  0  0  0  0  0  0  0  0  0  0
   -5.2500   -1.2990    0.0000 O   0  0  0  0  0  0  0  0  0  0  0  0
   -3.0000   -2.5981    0.0000 C   0  0  0  0  0  0  0  0  0  0  0  0
   -2.2500   -1.2990    0.0000 C   0  0  0  0  0  0  0  0  0  0  0  0
   -0.7500   -1.2990    0.0000 C   0  0  0  0  0  0  0  0  0  0  0  0
    0.0000    0.0000    0.0000 C   0  0  0  0  0  0  0  0  0  0  0  0
    1.5000    0.0000    0.0000 C   0  0  0  0  0  0  0  0  0  0  0  0
    2.2500   -1.2990    0.0000 C   0  0  0  0  0  0  0  0  0  0  0  0
    3.7500   -1.2990    0.0000 C   0  0  0  0  0  0  0  0  0  0  0  0
    4.5000   -2.5981    0.0000 C   0  0  0  0  0  0  0  0  0  0  0  0
    3.7500   -3.8971    0.0000 C   0  0  0  0  0  0  0  0  0  0  0  0
    4.5000   -5.1962    0.0000 C   0  0  0  0  0  0  0  0  0  0  0  0
    3.7500   -6.4952    0.0000 C   0  0  0  0  0  0  0  0  0  0  0  0
    2.2500   -6.4952    0.0000 C   0  0  0  0  0  0  0  0  0  0  0  0
    1.5000   -7.7942    0.0000 C   0  0  0  0  0  0  0  0  0  0  0  0
    2.2500   -9.0933    0.0000 C   0  0  0  0  0  0  0  0  0  0  0  0
    3.7500   -9.0933    0.0000 C   0  0  0  0  0  0  0  0  0  0  0  0
    4.5000  -10.3923    0.0000 C   0  0  0  0  0  0  0  0  0  0  0  0
    6.0000  -10.3923    0.0000 C   0  0  0  0  0  0  0  0  0  0  0  0
    6.7500   -9.0933    0.0000 C   0  0  0  0  0  0  0  0  0  0  0  0
    8.2500   -9.0933    0.0000 C   0  0  0  0  0  0  0  0  0  0  0  0
  1  2  1  0
  2  3  1  0
  3  4  1  0
  4  5  2  0
  4  6  1  0
  6  7  1  0
  7  8  1  0
  8  9  1  0
  9 10  2  0
 10 11  1  0
 11 12  1  0
 12 13  2  0
 13 14  1  0
 14 15  1  0
 15 16  2  0
 16 17  1  0
 17 18  1  0
 18 19  2  0
 19 20  1  0
 20 21  1  0
 21 22  2  0
 22 23  1  0
 23 24  1  0
M  END
$$$$
674662
     RDKit          2D

 50 48  0  0  0  0  0  0  0  0999 V2000
   -7.5000   -5.1962    0.0000 C   0  0  0  0  0  0  0  0  0  0  0  0
   -6.7500   -3.8971    0.0000 C   0  0  0  0  0  0  0  0  0  0  0  0
   -5.2500   -3.8971    0.0000 O   0  0  0  0  0  0  0  0  0  0  0  0
   -4.5000   -2.5981    0.0000 C   0  0  0  0  0  0  0  0  0  0  0  0
   -5.2500   -1.2990    0.0000 O   0  0  0  0  0  0  0  0  0  0  0  0
   -3.0000   -2.5981    0.0000 C   0  0  0  0  0  0  0  0  0  0  0  0
   -2.2500   -1.2990    0.0000 C   0  0  0  0  0  0  0  0  0  0  0  0
   -0.7500   -1.2990    0.0000 C   0  0  0  0  0  0  0  0  0  0  0  0
    0.0000    0.0000    0.0000 C   0  0  0  0  0  0  0  0  0  0  0  0
    1.5000    0.0000    0.0000 C   0  0  0  0  0  0  0  0  0  0  0  0
    2.2500   -1.2990    0.0000 C   0  0  0  0  0  0  0  0  0  0  0  0
    3.7500   -1.2990    0.0000 C   0  0  0  0  0  0  0  0  0  0  0  0
    4.5000   -2.5981    0.0000 C   0  0  0  0  0  0  0  0  0  0  0  0
    3.7500   -3.8971    0.0000 C   0  0  0  0  0  0  0  0  0  0  0  0
    4.5000   -5.1962    0.0000 C   0  0  0  0  0  0  0  0  0  0  0  0
    3.7500   -6.4952    0.0000 C   0  0  0  0  0  0  0  0  0  0  0  0
    2.2500   -6.4952    0.0000 C   0  0  0  0  0  0  0  0  0  0  0  0
    1.5000   -7.7942    0.0000 C   0  0  0  0  0  0  0  0  0  0  0  0
    2.2500   -9.0933    0.0000 C   0  0  0  0  0  0  0  0  0  0  0  0
    3.7500   -9.0933    0.0000 C   0  0  0  0  0  0  0  0  0  0  0  0
    4.5000  -10.3923    0.0000 C   0  0  0  0  0  0  0  0  0  0  0  0
    6.0000  -10.3923    0.0000 C   0  0  0  0  0  0  0  0  0  0  0  0
    6.7500   -9.0933    0.0000 C   0  0  0  0  0  0  0  0  0  0  0  0
    8.2500   -9.0933    0.0000 C   0  0  0  0  0  0  0  0  0  0  0  0
   -6.7500    7.4952    0.0000 C   0  0  0  0  0  0  0  0  0  0  0  0
   -5.2500    7.4952    0.0000 C   0  0  0  0  0  0  0  0  0  0  0  0
   -4.5000    8.7942    0.0000 O   0  0  0  0  0  0  0  0  0  0  0  0
   -3.0000    8.7942    0.0000 C   0  0  0  0  0  0  0  0  0  0  0  0
   -2.2500    7.4952    0.0000 O   0  0  0  0  0  0  0  0  0  0  0  0
   -2.2500   10.0933    0.0000 C   0  0  0  0  0  0  0  0  0  0  0  0
   -0.7500   10.0933    0.0000 C   0  0  0  0  0  0  0  0  0  0  0  0
    0.0000   11.3923    0.0000 C   0  0  0  0  0  0  0  0  0  0  0  0
    1.5000   11.3923    0.0000 C   0  0  0  0  0  0  0  0  0  0  0  0
    2.2500   10.0933    0.0000 C   0  0  0  0  0  0  0  0  0  0  0  0
    3.7500   10.0933    0.0000 C   0  0  0  0  0  0  0  0  0  0  0  0
    4.5000    8.7942    0.0000 C   0  0  0  0  0  0  0  0  0  0  0  0
    3.7500    7.4952    0.0000 C   0  0  0  0  0  0  0  0  0  0  0  0
    4.5000    6.1962    0.0000 C   0  0  0  0  0  0  0  0  0  0  0  0
    6.0000    6.1962    0.0000 C   0  0  0  0  0  0  0  0  0  0  0  0
    6.7500    7.4952    0.0000 C   0  0  0  0  0  0  0  0  0  0  0  0
    8.2500    7.4952    0.0000 C   0  0  0  0  0  0  0  0  0  0  0  0
    9.0000    6.1962    0.0000 C   0  0  0  0  0  0  0  0  0  0  0  0
    8.2500    4.8971    0.0000 C   0  0  0  0  0  0  0  0  0  0  0  0
    9.0000    3.5981    0.0000 C   0  0  0  0  0  0  0  0  0  0  0  0
   10.5000    3.5981    0.0000 C   0  0  0  0  0  0  0  0  0  0  0  0
   11.2500    4.8971    0.0000 C   0  0  0  0  0  0  0  0  0  0  0  0
   12.7500    4.8971    0.0000 C   0  0  0  0  0  0  0  0  0  0  0  0
   13.5000    3.5981    0.0000 C   0  0  0  0  0  0  0  0  0  0  0  0
   12.7500    2.2990    0.0000 C   0  0  0  0  0  0  0  0  0  0  0  0
   13.5000    1.0000    0.0000 C   0  0  0  0  0  0  0  0  0  0  0  0
  1  2  1  0
  2  3  1  0
  3  4  1  0
  4  5  2  0
  4  6  1  0
  6  7  1  0
  7  8  1  0
  8  9  1  0
  9 10  2  0
 10 11  1  0
 11 12  1  0
 12 13  2  0
 13 14  1  0
 14 15  1  0
 15 16  2  0
 16 17  1  0
 17 18  1  0
 18 19  2  0
 19 20  1  0
 20 21  1  0
 21 22  2  0
 22 23  1  0
 23 24  1  0
 25 26  1  0
 26 27  1  0
 27 28  1  0
 28 29  2  0
 28 30  1  0
 30 31  1  0
 31 32  1  0
 32 33  2  0
 33 34  1  0
 34 35  1  0
 35 36  2  0
 36 37  1  0
 37 38  1  0
 38 39  2  0
 39 40  1  0
 40 41  1  0
 41 42  2  0
 42 43  1  0
 43 44  1  0
 44 45  2  0
 45 46  1  0
 46 47  1  0
 47 48  2  0
 48 49  1  0
 49 50  1  0
M  END
$$$$
110803
     RDKit          2D

 27 30  0  0  0  0  0  0  0  0999 V2000
   -9.8815    2.0638    0.0000 C   0  0  0  0  0  0  0  0  0  0  0  0
   -9.4393    0.6305    0.0000 C   0  0  0  0  0  0  0  0  0  0  0  0
   -7.9769    0.2967    0.0000 O   0  0  0  0  0  0  0  0  0  0  0  0
   -7.5348   -1.1367    0.0000 C   0  0  0  0  0  0  0  0  0  0  0  0
   -8.5551   -2.2362    0.0000 O   0  0  0  0  0  0  0  0  0  0  0  0
   -6.0724   -1.4704    0.0000 N   0  0  0  0  0  0  0  0  0  0  0  0
   -5.0522   -0.3709    0.0000 C   0  0  0  0  0  0  0  0  0  0  0  0
   -3.5898   -0.7046    0.0000 C   0  0  0  0  0  0  0  0  0  0  0  0
   -3.1476   -2.1380    0.0000 C   0  0  0  0  0  0  0  0  0  0  0  0
   -1.6852   -2.4718    0.0000 C   0  0  0  0  0  0  0  0  0  0  0  0
   -1.3515   -3.9342    0.0000 C   0  0  0  0  0  0  0  0  0  0  0  0
   -2.5908   -4.7792    0.0000 C   0  0  0  0  0  0  0  0  0  0  0  0
   -2.4787   -6.2750    0.0000 C   0  0  0  0  0  0  0  0  0  0  0  0
   -1.1273   -6.9258    0.0000 C   0  0  0  0  0  0  0  0  0  0  0  0
   -1.0152   -8.4216    0.0000 Cl  0  0  0  0  0  0  0  0  0  0  0  0
    0.1121   -6.0808    0.0000 C   0  0  0  0  0  0  0  0  0  0  0  0
   -0.0000   -4.5850    0.0000 C   0  0  0  0  0  0  0  0  0  0  0  0
    1.3515   -3.9342    0.0000 C   0  0  0  0  0  0  0  0  0  0  0  0
    1.6852   -2.4718    0.0000 C   0  0  0  0  0  0  0  0  0  0  0  0
    0.7500   -1.2990    0.0000 C   0  0  0  0  0  0  0  0  0  0  0  0
    1.5000    0.0000    0.0000 C   0  0  0  0  0  0  0  0  0  0  0  0
    0.7500    1.2990    0.0000 C   0  0  0  0  0  0  0  0  0  0  0  0
   -0.7500    1.2990    0.0000 C   0  0  0  0  0  0  0  0  0  0  0  0
   -1.5000    0.0000    0.0000 N   0  0  0  0  0  0  0  0  0  0  0  0
   -0.7500   -1.2990    0.0000 C   0  0  0  0  0  0  0  0  0  0  0  0
   -4.1679   -3.2376    0.0000 C   0  0  0  0  0  0  0  0  0  0  0  0
   -5.6303   -2.9038    0.0000 C   0  0  0  0  0  0  0  0  0  0  0  0
  1  2  1  0
  2  3  1  0
  3  4  1  0
  4  5  2  0
  4  6  1  0
  6  7  1  0
  7  8  1  0
  8  9  1  0
  9 10  2  0
 10 11  1  0
 11 12  2  0
 12 13  1  0
 13 14  2  0
 14 15  1  0
 14 16  1  0
 16 17  2  0
 17 18  1  0
 18 19  1  0
 19 20  1  0
 20 21  2  0
 21 22  1  0
 22 23  2  0
 23 24  1  0
 24 25  2  0
  9 26  1  0
 26 27  1  0
 27  6  1  0
 25 10  1  0
 17 11  1  0
 25 20  1  0
M  END
$$$$
61945
     RDKit          2D

 22 23  0  0  0  0  0  0  0  0999 V2000
    7.5000   -2.5981    0.0000 C   0  0  0  0  0  0  0  0  0  0  0  0
    6.0000   -2.5981    0.0000 C   0  0  0  0  0  0  0  0  0  0  0  0
    5.2500   -1.2990    0.0000 O   0  0  0  0  0  0  0  0  0  0  0  0
    3.7500   -1.2990    0.0000 C   0  0  0  0  0  0  0  0  0  0  0  0
    3.0000   -2.5981    0.0000 O   0  0  0  0  0  0  0  0  0  0  0  0
    3.0000    0.0000    0.0000 N   0  0  0  0  0  0  0  0  0  0  0  0
    1.5000    0.0000    0.0000 C   0  0  0  0  0  0  0  0  0  0  0  0
    0.7500   -1.2990    0.0000 C   0  0  0  0  0  0  0  0  0  0  0  0
   -0.7500   -1.2990    0.0000 C   0  0  0  0  0  0  0  0  0  0  0  0
   -1.5000    0.0000    0.0000 C   0  0  0  0  0  0  0  0  0  0  0  0
   -3.0000    0.0000    0.0000 N   0  0  0  0  0  0  0  0  0  0  0  0
   -3.7500    1.2990    0.0000 C   0  0  0  0  0  0  0  0  0  0  0  0
   -5.2500    1.2990    0.0000 C   0  0  0  0  0  0  0  0  0  0  0  0
   -6.0000    2.5981    0.0000 C   0  0  0  0  0  0  0  0  0  0  0  0
   -7.5000    2.5981    0.0000 C   0  0  0  0  0  0  0  0  0  0  0  0
   -8.2500    1.2990    0.0000 C   0  0  0  0  0  0  0  0  0  0  0  0
   -9.7500    1.2990    0.0000 F   0  0  0  0  0  0  0  0  0  0  0  0
   -7.5000    0.0000    0.0000 C   0  0  0  0  0  0  0  0  0  0  0  0
   -6.0000    0.0000    0.0000 C   0  0  0  0  0  0  0  0  0  0  0  0
   -0.7500    1.2990    0.0000 C   0  0  0  0  0  0  0  0  0  0  0  0
    0.7500    1.2990    0.0000 C   0  0  0  0  0  0  0  0  0  0  0  0
    1.5000    2.5981    0.0000 N   0  0  0  0  0  0  0  0  0  0  0  0
  1  2  1  0
  2  3  1  0
  3  4  1  0
  4  5  2  0
  4  6  1  0
  6  7  1  0
  7  8  2  0
  8  9  1  0
  9 10  2  0
 10 11  1  0
 11 12  1  0
 12 13  1  0
 13 14  2  0
 14 15  1  0
 15 16  2  0
 16 17  1  0
 16 18  1  0
 18 19  2  0
 10 20  1  0
 20 21  2  0
 21 22  1  0
 21  7  1  0
 19 13  1  0
M  END
$$$$
139866
     RDKit          2D

 30 33  0  0  0  0  0  0  0  0999 V2000
   -6.0000  -10.3923    0.0000 C   0  0  0  0  0  0  0  0  0  0  0  0
   -5.2500   -9.0933    0.0000 C   0  0  0  0  0  0  0  0  0  0  0  0
   -3.7500   -9.0933    0.0000 O   0  0  0  0  0  0  0  0  0  0  0  0
   -3.0000   -7.7942    0.0000 C   0  0  0  0  0  0  0  0  0  0  0  0
   -3.7500   -6.4952    0.0000 O   0  0  0  0  0  0  0  0  0  0  0  0
   -1.5000   -7.7942    0.0000 N   0  0  0  0  0  0  0  0  0  0  0  0
   -0.7500   -6.4952    0.0000 C   0  0  0  0  0  0  0  0  0  0  0  0
    0.7500   -6.4952    0.0000 C   0  0  0  0  0  0  0  0  0  0  0  0
    1.5000   -5.1962    0.0000 C   0  0  0  0  0  0  0  0  0  0  0  0
    0.7500   -3.8971    0.0000 C   0  0  0  0  0  0  0  0  0  0  0  0
    1.5000   -2.5981    0.0000 S   0  0  0  0  0  0  0  0  0  0  0  0
    0.7500   -1.2990    0.0000 C   0  0  0  0  0  0  0  0  0  0  0  0
    1.5000    0.0000    0.0000 C   0  0  0  0  0  0  0  0  0  0  0  0
    0.7500    1.2990    0.0000 C   0  0  0  0  0  0  0  0  0  0  0  0
   -0.7500    1.2990    0.0000 C   0  0  0  0  0  0  0  0  0  0  0  0
   -1.5000    0.0000    0.0000 C   0  0  0  0  0  0  0  0  0  0  0  0
   -0.7500   -1.2990    0.0000 C   0  0  0  0  0  0  0  0  0  0  0  0
   -1.5000   -2.5981    0.0000 N   0  0  0  0  0  0  0  0  0  0  0  0
   -3.0000   -2.5981    0.0000 C   0  0  0  0  0  0  0  0  0  0  0  0
   -3.7500   -3.8971    0.0000 O   0  0  0  0  0  0  0  0  0  0  0  0
   -3.7500   -1.2990    0.0000 C   0  0  0  0  0  0  0  0  0  0  0  0
   -5.2500   -1.2990    0.0000 C   0  0  0  0  0  0  0  0  0  0  0  0
   -6.0000    0.0000    0.0000 N   0  0  0  0  0  0  0  0  0  0  0  0
   -5.2500    1.2990    0.0000 C   0  0  0  0  0  0  0  0  0  0  0  0
   -6.0000    2.5981    0.0000 C   0  0  0  0  0  0  0  0  0  0  0  0
   -7.5000    2.5981    0.0000 O   0  0  0  0  0  0  0  0  0  0  0  0
   -8.2500    1.2990    0.0000 C   0  0  0  0  0  0  0  0  0  0  0  0
   -7.5000    0.0000    0.0000 C   0  0  0  0  0  0  0  0  0  0  0  0
   -0.7500   -3.8971    0.0000 C   0  0  0  0  0  0  0  0  0  0  0  0
   -1.5000   -5.1962    0.0000 C   0  0  0  0  0  0  0  0  0  0  0  0
  1  2  1  0
  2  3  1  0
  3  4  1  0
  4  5  2  0
  4  6  1  0
  6  7  1  0
  7  8  2  0
  8  9  1  0
  9 10  2  0
 10 11  1  0
 11 12  1  0
 12 13  2  0
 13 14  1  0
 14 15  2  0
 15 16  1  0
 16 17  2  0
 17 18  1  0
 18 19  1  0
 19 20  2  0
 19 21  1  0
 21 22  1  0
 22 23  1  0
 23 24  1  0
 24 25  1  0
 25 26  1  0
 26 27  1  0
 27 28  1  0
 18 29  1  0
 29 30  2  0
 30  7  1  0
 29 10  1  0
 17 12  1  0
 28 23  1  0
M  END
$$$$
486977
     RDKit          2D

 36 40  0  0  0  0  0  0  0  0999 V2000
    7.5000   -2.5981    0.0000 C   0  0  0  0  0  0  0  0  0  0  0  0
    6.0000   -2.5981    0.0000 C   0  0  0  0  0  0  0  0  0  0  0  0
    5.2500   -1.2990    0.0000 O   0  0  0  0  0  0  0  0  0  0  0  0
    3.7500   -1.2990    0.0000 C   0  0  0  0  0  0  0  0  0  0  0  0
    3.0000   -2.5981    0.0000 O   0  0  0  0  0  0  0  0  0  0  0  0
    3.0000    0.0000    0.0000 N   0  0  0  0  0  0  0  0  0  0  0  0
    1.5000    0.0000    0.0000 C   0  0  0  0  0  0  0  0  0  0  0  0
    0.7500   -1.2990    0.0000 C   0  0  0  0  0  0  0  0  0  0  0  0
   -0.7500   -1.2990    0.0000 C   0  0  0  0  0  0  0  0  0  0  0  0
   -1.5000    0.0000    0.0000 C   0  0  0  0  0  0  0  0  0  0  0  0
   -0.7500    1.2990    0.0000 C   0  0  0  0  0  0  0  0  0  0  0  0
    0.7500    1.2990    0.0000 C   0  0  0  0  0  0  0  0  0  0  0  0
   -1.5000    2.5981    0.0000 C   0  0  0  0  0  0  0  0  0  0  0  0
   -3.0000    2.5981    0.0000 C   0  0  0  0  0  0  0  0  0  0  0  0
   -3.7500    1.2990    0.0000 C   0  0  0  0  0  0  0  0  0  0  0  0
   -5.2172    1.6109    0.0000 C   0  0  0  0  0  0  0  0  0  0  0  0
   -6.3319    0.6072    0.0000 C   0  0  0  0  0  0  0  0  0  0  0  0
   -5.3740    3.1027    0.0000 O   0  0  0  0  0  0  0  0  0  0  0  0
   -4.0037    3.7128    0.0000 C   0  0  0  0  0  0  0  0  0  0  0  0
   -3.6918    5.1800    0.0000 O   0  0  0  0  0  0  0  0  0  0  0  0
   -3.0000    0.0000    0.0000 C   0  0  0  0  0  0  0  0  0  0  0  0
   -3.7500   -1.2990    0.0000 C   0  0  0  0  0  0  0  0  0  0  0  0
   -5.2500   -1.2990    0.0000 C   0  0  0  0  0  0  0  0  0  0  0  0
   -6.0000   -2.5981    0.0000 C   0  0  0  0  0  0  0  0  0  0  0  0
   -7.5000   -2.5981    0.0000 C   0  0  0  0  0  0  0  0  0  0  0  0
   -8.2500   -3.8971    0.0000 C   0  0  0  0  0  0  0  0  0  0  0  0
   -7.5000   -5.1962    0.0000 C   0  0  0  0  0  0  0  0  0  0  0  0
   -6.0000   -5.1962    0.0000 C   0  0  0  0  0  0  0  0  0  0  0  0
   -5.2500   -3.8971    0.0000 N   0  0  0  0  0  0  0  0  0  0  0  0
   -8.2500   -6.4952    0.0000 C   0  0  0  0  0  0  0  0  0  0  0  0
   -9.7500   -6.4952    0.0000 C   0  0  0  0  0  0  0  0  0  0  0  0
  -10.5000   -7.7942    0.0000 C   0  0  0  0  0  0  0  0  0  0  0  0
   -9.7500   -9.0933    0.0000 C   0  0  0  0  0  0  0  0  0  0  0  0
   -8.2500   -9.0933    0.0000 C   0  0  0  0  0  0  0  0  0  0  0  0
   -7.5000  -10.3923    0.0000 F   0  0  0  0  0  0  0  0  0  0  0  0
   -7.5000   -7.7942    0.0000 C   0  0  0  0  0  0  0  0  0  0  0  0
  1  2  1  0
  2  3  1  0
  3  4  1  0
  4  5  2  0
  4  6  1  0
  7  6  1  6
  7  8  1  0
  8  9  1  0
 10  9  1  1
 10 11  1  0
 11 12  1  6
 11 13  1  0
 14 13  1  6
 14 15  1  0
 15 16  1  6
 16 17  1  1
 16 18  1  0
 18 19  1  0
 19 20  2  0
 15 21  1  0
 21 22  1  6
 22 23  2  0
 23 24  1  0
 24 25  2  0
 25 26  1  0
 26 27  2  0
 27 28  1  0
 28 29  2  0
 27 30  1  0
 30 31  2  0
 31 32  1  0
 32 33  2  0
 33 34  1  0
 34 35  1  0
 34 36  2  0
 12  7  1  0
 21 10  1  0
 19 14  1  0
 29 24  1  0
 36 30  1  0
M  END
$$$$
1379656
     RDKit          2D

 41 44  0  0  0  0  0  0  0  0999 V2000
    7.5000   -2.5981    0.0000 C   0  0  0  0  0  0  0  0  0  0  0  0
    6.0000   -2.5981    0.0000 C   0  0  0  0  0  0  0  0  0  0  0  0
    5.2500   -1.2990    0.0000 O   0  0  0  0  0  0  0  0  0  0  0  0
    3.7500   -1.2990    0.0000 C   0  0  0  0  0  0  0  0  0  0  0  0
    3.0000   -2.5981    0.0000 O   0  0  0  0  0  0  0  0  0  0  0  0
    3.0000    0.0000    0.0000 N   0  0  0  0  0  0  0  0  0  0  0  0
    1.5000    0.0000    0.0000 C   0  0  0  0  0  0  0  0  0  0  0  0
    0.7500   -1.2990    0.0000 C   0  0  0  0  0  0  0  0  0  0  0  0
   -0.7500   -1.2990    0.0000 C   0  0  0  0  0  0  0  0  0  0  0  0
   -1.5000    0.0000    0.0000 C   0  0  0  0  0  0  0  0  0  0  0  0
   -0.7500    1.2990    0.0000 C   0  0  0  0  0  0  0  0  0  0  0  0
    0.7500    1.2990    0.0000 C   0  0  0  0  0  0  0  0  0  0  0  0
   -1.5000    2.5981    0.0000 C   0  0  0  0  0  0  0  0  0  0  0  0
   -3.0000    2.5981    0.0000 C   0  0  0  0  0  0  0  0  0  0  0  0
   -3.7500    1.2990    0.0000 C   0  0  0  0  0  0  0  0  0  0  0  0
   -5.2172    1.6109    0.0000 C   0  0  0  0  0  0  0  0  0  0  0  0
   -6.3319    0.6072    0.0000 C   0  0  0  0  0  0  0  0  0  0  0  0
   -5.3740    3.1027    0.0000 O   0  0  0  0  0  0  0  0  0  0  0  0
   -4.0037    3.7128    0.0000 C   0  0  0  0  0  0  0  0  0  0  0  0
   -3.6918    5.1800    0.0000 O   0  0  0  0  0  0  0  0  0  0  0  0
   -3.0000    0.0000    0.0000 C   0  0  0  0  0  0  0  0  0  0  0  0
   -3.7500   -1.2990    0.0000 C   0  0  0  0  0  0  0  0  0  0  0  0
   -5.2500   -1.2990    0.0000 C   0  0  0  0  0  0  0  0  0  0  0  0
   -6.0000   -2.5981    0.0000 C   0  0  0  0  0  0  0  0  0  0  0  0
   -7.5000   -2.5981    0.0000 C   0  0  0  0  0  0  0  0  0  0  0  0
   -8.2500   -3.8971    0.0000 C   0  0  0  0  0  0  0  0  0  0  0  0
   -7.5000   -5.1962    0.0000 C   0  0  0  0  0  0  0  0  0  0  0  0
   -6.0000   -5.1962    0.0000 C   0  0  0  0  0  0  0  0  0  0  0  0
   -5.2500   -3.8971    0.0000 N   0  0  0  0  0  0  0  0  0  0  0  0
   -8.2500   -6.4952    0.0000 C   0  0  0  0  0  0  0  0  0  0  0  0
   -9.7500   -6.4952    0.0000 C   0  0  0  0  0  0  0  0  0  0  0  0
  -10.5000   -7.7942    0.0000 C   0  0  0  0  0  0  0  0  0  0  0  0
   -9.7500   -9.0933    0.0000 C   0  0  0  0  0  0  0  0  0  0  0  0
   -8.2500   -9.0933    0.0000 C   0  0  0  0  0  0  0  0  0  0  0  0
   -7.5000  -10.3923    0.0000 F   0  0  0  0  0  0  0  0  0  0  0  0
   -7.5000   -7.7942    0.0000 C   0  0  0  0  0  0  0  0  0  0  0  0
    0.0000    6.7291    0.0000 O   0  0  0  0  0  0  0  0  0  0  0  0
    1.2990    7.4791    0.0000 S   0  0  0  0  0  0  0  0  0  0  0  0
    2.0490    6.1800    0.0000 O   0  0  0  0  0  0  0  0  0  0  0  0
    0.5490    8.7781    0.0000 O   0  0  0  0  0  0  0  0  0  0  0  0
    2.5981    8.2291    0.0000 O   0  0  0  0  0  0  0  0  0  0  0  0
  1  2  1  0
  2  3  1  0
  3  4  1  0
  4  5  2  0
  4  6  1  0
  7  6  1  6
  7  8  1  0
  8  9  1  0
 10  9  1  1
 10 11  1  0
 11 12  1  6
 11 13  1  0
 14 13  1  6
 14 15  1  0
 15 16  1  6
 16 17  1  1
 16 18  1  0
 18 19  1  0
 19 20  2  0
 15 21  1  0
 21 22  1  6
 22 23  2  0
 23 24  1  0
 24 25  2  0
 25 26  1  0
 26 27  2  0
 27 28  1  0
 28 29  2  0
 27 30  1  0
 30 31  2  0
 31 32  1  0
 32 33  2  0
 33 34  1  0
 34 35  1  0
 34 36  2  0
 37 38  1  0
 38 39  2  0
 38 40  2  0
 38 41  1  0
 12  7  1  0
 21 10  1  0
 19 14  1  0
 29 24  1  0
 36 30  1  0
M  END
$$$$
453719
     RDKit          2D

 32 34  0  0  0  0  0  0  0  0999 V2000
   10.2760    2.5981    0.0000 C   0  0  0  0  0  0  0  0  0  0  0  0
    9.5260    1.2990    0.0000 C   0  0  0  0  0  0  0  0  0  0  0  0
    8.0260    1.2990    0.0000 O   0  0  0  0  0  0  0  0  0  0  0  0
    7.2760    0.0000    0.0000 C   0  0  0  0  0  0  0  0  0  0  0  0
    8.0260   -1.2990    0.0000 O   0  0  0  0  0  0  0  0  0  0  0  0
    5.7760    0.0000    0.0000 O   0  0  0  0  0  0  0  0  0  0  0  0
    5.0260   -1.2990    0.0000 C   0  0  0  0  0  0  0  0  0  0  0  0
    5.7760   -2.5981    0.0000 C   0  0  0  0  0  0  0  0  0  0  0  0
    3.5260   -1.2990    0.0000 O   0  0  0  0  0  0  0  0  0  0  0  0
    2.7760    0.0000    0.0000 C   0  0  0  0  0  0  0  0  0  0  0  0
    3.5260    1.2990    0.0000 O   0  0  0  0  0  0  0  0  0  0  0  0
    1.2760    0.0000    0.0000 C   0  0  0  0  0  0  0  0  0  0  0  0
    0.3943    1.2135    0.0000 N   0  0  0  0  0  0  0  0  0  0  0  0
   -1.0323    0.7500    0.0000 C   0  0  0  0  0  0  0  0  0  0  0  0
   -1.0323   -0.7500    0.0000 S   0  0  0  0  0  0  0  0  0  0  0  0
    0.3943   -1.2135    0.0000 C   0  0  0  0  0  0  0  0  0  0  0  0
    1.6933   -1.9635    0.0000 C   0  0  0  0  0  0  0  0  0  0  0  0
   -0.2158   -2.5838    0.0000 C   0  0  0  0  0  0  0  0  0  0  0  0
   -1.4958    2.1766    0.0000 C   0  0  0  0  0  0  0  0  0  0  0  0
   -2.8323    2.8576    0.0000 N   0  0  0  0  0  0  0  0  0  0  0  0
   -2.9108    4.3555    0.0000 C   0  0  0  0  0  0  0  0  0  0  0  0
   -1.6528    5.1725    0.0000 O   0  0  0  0  0  0  0  0  0  0  0  0
   -4.2473    5.0365    0.0000 C   0  0  0  0  0  0  0  0  0  0  0  0
   -5.5053    4.2195    0.0000 N   0  0  0  0  0  0  0  0  0  0  0  0
   -4.3258    6.5344    0.0000 C   0  0  0  0  0  0  0  0  0  0  0  0
   -3.0678    7.3514    0.0000 C   0  0  0  0  0  0  0  0  0  0  0  0
   -3.1463    8.8493    0.0000 C   0  0  0  0  0  0  0  0  0  0  0  0
   -4.4828    9.5303    0.0000 C   0  0  0  0  0  0  0  0  0  0  0  0
   -5.7409    8.7134    0.0000 C   0  0  0  0  0  0  0  0  0  0  0  0
   -5.6623    7.2154    0.0000 C   0  0  0  0  0  0  0  0  0  0  0  0
   -0.0692    2.6401    0.0000 C   0  0  0  0  0  0  0  0  0  0  0  0
    0.6118    3.9766    0.0000 O   0  0  0  0  0  0  0  0  0  0  0  0
  1  2  1  0
  2  3  1  0
  3  4  1  0
  4  5  2  0
  4  6  1  0
  6  7  1  0
  7  8  1  0
  7  9  1  0
  9 10  1  0
 10 11  2  0
 12 10  1  1
 12 13  1  0
 13 14  1  0
 14 15  1  6
 15 16  1  0
 16 17  1  0
 16 18  1  0
 14 19  1  0
 19 20  1  6
 20 21  1  0
 21 22  2  0
 21 23  1  0
 23 24  1  6
 23 25  1  0
 25 26  2  0
 26 27  1  0
 27 28  2  0
 28 29  1  0
 29 30  2  0
 19 31  1  0
 31 32  2  0
 16 12  1  0
 31 13  1  0
 30 25  1  0
M  END
$$$$
1626732
     RDKit          2D

 30 31  0  0  0  0  0  0  0  0999 V2000
    6.0000   -7.7942    0.0000 C   0  0  0  0  0  0  0  0  0  0  0  0
    5.2500   -6.4952    0.0000 C   0  0  0  0  0  0  0  0  0  0  0  0
    6.0000   -5.1962    0.0000 O   0  0  0  0  0  0  0  0  0  0  0  0
    5.2500   -3.8971    0.0000 C   0  0  0  0  0  0  0  0  0  0  0  0
    3.7500   -3.8971    0.0000 O   0  0  0  0  0  0  0  0  0  0  0  0
    6.0000   -2.5981    0.0000 C   0  0  0  0  0  0  0  0  0  0  0  0
    7.5000   -2.5981    0.0000 C   0  0  0  0  0  0  0  0  0  0  0  0
    5.2500   -1.2990    0.0000 C   0  0  0  0  0  0  0  0  0  0  0  0
    3.7500   -1.2990    0.0000 C   0  0  0  0  0  0  0  0  0  0  0  0
    3.0000    0.0000    0.0000 C   0  0  0  0  0  0  0  0  0  0  0  0
    3.7500    1.2990    0.0000 C   0  0  0  0  0  0  0  0  0  0  0  0
    5.2500    1.2990    0.0000 C   0  0  0  0  0  0  0  0  0  0  0  0
    6.0000    2.5981    0.0000 C   0  0  0  0  0  0  0  0  0  0  0  0
    5.2500    3.8971    0.0000 C   0  0  0  0  0  0  0  0  0  0  0  0
    3.7500    3.8971    0.0000 C   0  0  0  0  0  0  0  0  0  0  0  0
    3.0000    2.5981    0.0000 C   0  0  0  0  0  0  0  0  0  0  0  0
    6.0000    5.1962    0.0000 C   0  0  0  0  0  0  0  0  0  0  0  0
    5.2500    6.4952    0.0000 C   0  0  0  0  0  0  0  0  0  0  0  0
    6.0000    7.7942    0.0000 C   0  0  0  0  0  0  0  0  0  0  0  0
    7.5000    7.7942    0.0000 C   0  0  0  0  0  0  0  0  0  0  0  0
    8.2500    6.4952    0.0000 C   0  0  0  0  0  0  0  0  0  0  0  0
    7.5000    5.1962    0.0000 C   0  0  0  0  0  0  0  0  0  0  0  0
    3.0000   -2.5981    0.0000 N   0  0  0  0  0  0  0  0  0  0  0  0
    1.5000   -2.5981    0.0000 C   0  0  0  0  0  0  0  0  0  0  0  0
    0.7500   -1.2990    0.0000 O   0  0  0  0  0  0  0  0  0  0  0  0
    0.7500   -3.8971    0.0000 C   0  0  0  0  0  0  0  0  0  0  0  0
   -0.7500   -3.8971    0.0000 C   0  0  0  0  0  0  0  0  0  0  0  0
   -1.5000   -5.1962    0.0000 C   0  0  0  0  0  0  0  0  0  0  0  0
   -0.7500   -6.4952    0.0000 O   0  0  0  0  0  0  0  0  0  0  0  0
   -3.0000   -5.1962    0.0000 O   0  0  0  0  0  0  0  0  0  0  0  0
  1  2  1  0
  2  3  1  0
  3  4  1  0
  4  5  2  0
  4  6  1  0
  6  7  1  1
  6  8  1  0
  9  8  1  6
  9 10  1  0
 10 11  1  0
 11 12  2  0
 12 13  1  0
 13 14  2  0
 14 15  1  0
 15 16  2  0
 14 17  1  0
 17 18  2  0
 18 19  1  0
 19 20  2  0
 20 21  1  0
 21 22  2  0
  9 23  1  0
 23 24  1  0
 24 25  2  0
 24 26  1  0
 26 27  1  0
 27 28  1  0
 28 29  2  0
 28 30  1  0
 16 11  1  0
 22 17  1  0
M  END
$$$$
1967
     RDKit          2D

 31 33  0  0  0  0  0  0  0  0999 V2000
   11.0995    1.8899    0.0000 C   0  0  0  0  0  0  0  0  0  0  0  0
    9.7292    2.5000    0.0000 C   0  0  0  0  0  0  0  0  0  0  0  0
    8.5157    1.6183    0.0000 O   0  0  0  0  0  0  0  0  0  0  0  0
    7.1454    2.2284    0.0000 C   0  0  0  0  0  0  0  0  0  0  0  0
    6.9886    3.7202    0.0000 O   0  0  0  0  0  0  0  0  0  0  0  0
    5.9318    1.3467    0.0000 C   0  0  0  0  0  0  0  0  0  0  0  0
    6.0886   -0.1450    0.0000 C   0  0  0  0  0  0  0  0  0  0  0  0
    7.4589   -0.7552    0.0000 C   0  0  0  0  0  0  0  0  0  0  0  0
    7.6157   -2.2469    0.0000 C   0  0  0  0  0  0  0  0  0  0  0  0
    6.4022   -3.1286    0.0000 C   0  0  0  0  0  0  0  0  0  0  0  0
    6.5590   -4.6204    0.0000 C   0  0  0  0  0  0  0  0  0  0  0  0
    7.9293   -5.2305    0.0000 C   0  0  0  0  0  0  0  0  0  0  0  0
    9.1429   -4.3488    0.0000 C   0  0  0  0  0  0  0  0  0  0  0  0
    8.9861   -2.8570    0.0000 C   0  0  0  0  0  0  0  0  0  0  0  0
    4.5615    1.9568    0.0000 N   0  0  0  0  0  0  0  0  0  0  0  0
    4.4047    3.4486    0.0000 C   0  0  0  0  0  0  0  0  0  0  0  0
    5.6183    4.3303    0.0000 C   0  0  0  0  0  0  0  0  0  0  0  0
    3.0344    4.0587    0.0000 C   0  0  0  0  0  0  0  0  0  0  0  0
    2.8776    5.5505    0.0000 O   0  0  0  0  0  0  0  0  0  0  0  0
    1.8209    3.1771    0.0000 N   0  0  0  0  0  0  0  0  0  0  0  0
    1.8209    1.6771    0.0000 C   0  0  0  0  0  0  0  0  0  0  0  0
    0.3943    1.2135    0.0000 C   0  0  0  0  0  0  0  0  0  0  0  0
   -0.4874    2.4271    0.0000 C   0  0  0  0  0  0  0  0  0  0  0  0
    0.3943    3.6406    0.0000 C   0  0  0  0  0  0  0  0  0  0  0  0
   -0.0692    5.0672    0.0000 C   0  0  0  0  0  0  0  0  0  0  0  0
   -1.5364    5.3790    0.0000 O   0  0  0  0  0  0  0  0  0  0  0  0
    0.9345    6.1819    0.0000 O   0  0  0  0  0  0  0  0  0  0  0  0
    1.2760    0.0000    0.0000 S   0  0  0  0  0  0  0  0  0  0  0  0
    0.3943   -1.2135    0.0000 C   0  0  0  0  0  0  0  0  0  0  0  0
   -1.0323   -0.7500    0.0000 C   0  0  0  0  0  0  0  0  0  0  0  0
   -1.0323    0.7500    0.0000 S   0  0  0  0  0  0  0  0  0  0  0  0
  1  2  1  0
  2  3  1  0
  3  4  1  0
  4  5  2  0
  4  6  1  0
  6  7  1  6
  7  8  1  0
  8  9  1  0
  9 10  2  0
 10 11  1  0
 11 12  2  0
 12 13  1  0
 13 14  2  0
  6 15  1  0
 15 16  1  0
 16 17  1  6
 16 18  1  0
 18 19  2  0
 18 20  1  0
 20 21  1  0
 21 22  1  0
 22 23  1  0
 23 24  1  0
 24 25  1  1
 25 26  2  0
 25 27  1  0
 22 28  1  0
 28 29  1  0
 29 30  1  0
 30 31  1  0
 14  9  1  0
 24 20  1  0
 31 22  1  0
M  END
$$$$
188707
     RDKit          2D

 36 38  0  0  0  0  0  0  0  0999 V2000
    9.7500   -3.8971    0.0000 C   0  0  0  0  0  0  0  0  0  0  0  0
    8.2500   -3.8971    0.0000 C   0  0  0  0  0  0  0  0  0  0  0  0
    7.5000   -2.5981    0.0000 O   0  0  0  0  0  0  0  0  0  0  0  0
    6.0000   -2.5981    0.0000 C   0  0  0  0  0  0  0  0  0  0  0  0
    5.2500   -3.8971    0.0000 O   0  0  0  0  0  0  0  0  0  0  0  0
    5.2500   -1.2990    0.0000 C   0  0  0  0  0  0  0  0  0  0  0  0
    6.0000   -0.0000    0.0000 C   0  0  0  0  0  0  0  0  0  0  0  0
    7.5000   -0.0000    0.0000 C   0  0  0  0  0  0  0  0  0  0  0  0
    8.2500    1.2990    0.0000 C   0  0  0  0  0  0  0  0  0  0  0  0
    9.7500    1.2990    0.0000 C   0  0  0  0  0  0  0  0  0  0  0  0
   10.5000    2.5981    0.0000 C   0  0  0  0  0  0  0  0  0  0  0  0
    9.7500    3.8971    0.0000 C   0  0  0  0  0  0  0  0  0  0  0  0
    8.2500    3.8971    0.0000 C   0  0  0  0  0  0  0  0  0  0  0  0
    7.5000    2.5981    0.0000 C   0  0  0  0  0  0  0  0  0  0  0  0
    3.7500   -1.2990    0.0000 N   0  0  0  0  0  0  0  0  0  0  0  0
    3.0000   -2.5981    0.0000 C   0  0  0  0  0  0  0  0  0  0  0  0
    3.7500   -3.8971    0.0000 C   0  0  0  0  0  0  0  0  0  0  0  0
    1.5000   -2.5981    0.0000 C   0  0  0  0  0  0  0  0  0  0  0  0
    0.7500   -3.8971    0.0000 O   0  0  0  0  0  0  0  0  0  0  0  0
    0.7500   -1.2990    0.0000 N   0  0  0  0  0  0  0  0  0  0  0  0
    1.5000    0.0000    0.0000 C   0  0  0  0  0  0  0  0  0  0  0  0
    0.7500    1.2990    0.0000 C   0  0  0  0  0  0  0  0  0  0  0  0
    1.5000    2.5981    0.0000 C   0  0  0  0  0  0  0  0  0  0  0  0
    0.7500    3.8971    0.0000 C   0  0  0  0  0  0  0  0  0  0  0  0
    1.5000    5.1962    0.0000 O   0  0  0  0  0  0  0  0  0  0  0  0
    3.0000    5.1962    0.0000 C   0  0  0  0  0  0  0  0  0  0  0  0
   -0.7500    3.8971    0.0000 C   0  0  0  0  0  0  0  0  0  0  0  0
   -1.5000    5.1962    0.0000 O   0  0  0  0  0  0  0  0  0  0  0  0
   -0.7500    6.4952    0.0000 C   0  0  0  0  0  0  0  0  0  0  0  0
   -1.5000    2.5981    0.0000 C   0  0  0  0  0  0  0  0  0  0  0  0
   -0.7500    1.2990    0.0000 C   0  0  0  0  0  0  0  0  0  0  0  0
   -1.5000    0.0000    0.0000 C   0  0  0  0  0  0  0  0  0  0  0  0
   -0.7500   -1.2990    0.0000 C   0  0  0  0  0  0  0  0  0  0  0  0
   -1.5000   -2.5981    0.0000 C   0  0  0  0  0  0  0  0  0  0  0  0
   -0.7500   -3.8971    0.0000 O   0  0  0  0  0  0  0  0  0  0  0  0
   -3.0000   -2.5981    0.0000 O   0  0  0  0  0  0  0  0  0  0  0  0
  1  2  1  0
  2  3  1  0
  3  4  1  0
  4  5  2  0
  4  6  1  0
  6  7  1  1
  7  8  1  0
  8  9  1  0
  9 10  2  0
 10 11  1  0
 11 12  2  0
 12 13  1  0
 13 14  2  0
  6 15  1  0
 15 16  1  0
 16 17  1  1
 16 18  1  0
 18 19  2  0
 18 20  1  0
 20 21  1  0
 21 22  1  0
 22 23  2  0
 23 24  1  0
 24 25  1  0
 25 26  1  0
 24 27  2  0
 27 28  1  0
 28 29  1  0
 27 30  1  0
 30 31  2  0
 31 32  1  0
 32 33  1  0
 33 34  1  6
 34 35  2  0
 34 36  1  0
 14  9  1  0
 33 20  1  0
 31 22  1  0
M  END
$$$$
454141
     RDKit          2D

 32 34  0  0  0  0  0  0  0  0999 V2000
    9.7500   -6.4952    0.0000 C   0  0  0  0  0  0  0  0  0  0  0  0
    8.2500   -6.4952    0.0000 C   0  0  0  0  0  0  0  0  0  0  0  0
    7.5000   -5.1962    0.0000 O   0  0  0  0  0  0  0  0  0  0  0  0
    6.0000   -5.1962    0.0000 C   0  0  0  0  0  0  0  0  0  0  0  0
    5.2500   -6.4952    0.0000 O   0  0  0  0  0  0  0  0  0  0  0  0
    5.2500   -3.8971    0.0000 C   0  0  0  0  0  0  0  0  0  0  0  0
    6.0000   -2.5981    0.0000 C   0  0  0  0  0  0  0  0  0  0  0  0
    7.5000   -2.5981    0.0000 C   0  0  0  0  0  0  0  0  0  0  0  0
    8.2500   -1.2990    0.0000 C   0  0  0  0  0  0  0  0  0  0  0  0
    9.7500   -1.2990    0.0000 C   0  0  0  0  0  0  0  0  0  0  0  0
   10.5000   -0.0000    0.0000 C   0  0  0  0  0  0  0  0  0  0  0  0
    9.7500    1.2990    0.0000 C   0  0  0  0  0  0  0  0  0  0  0  0
    8.2500    1.2990    0.0000 C   0  0  0  0  0  0  0  0  0  0  0  0
    7.5000   -0.0000    0.0000 C   0  0  0  0  0  0  0  0  0  0  0  0
    3.7500   -3.8971    0.0000 N   0  0  0  0  0  0  0  0  0  0  0  0
    3.0000   -5.1962    0.0000 C   0  0  0  0  0  0  0  0  0  0  0  0
    3.7500   -6.4952    0.0000 C   0  0  0  0  0  0  0  0  0  0  0  0
    1.5000   -5.1962    0.0000 C   0  0  0  0  0  0  0  0  0  0  0  0
    0.7500   -6.4952    0.0000 O   0  0  0  0  0  0  0  0  0  0  0  0
    0.7500   -3.8971    0.0000 N   0  0  0  0  0  0  0  0  0  0  0  0
    1.5000   -2.5981    0.0000 C   0  0  0  0  0  0  0  0  0  0  0  0
    0.7500   -1.2990    0.0000 C   0  0  0  0  0  0  0  0  0  0  0  0
    1.5000    0.0000    0.0000 C   0  0  0  0  0  0  0  0  0  0  0  0
    0.7500    1.2990    0.0000 C   0  0  0  0  0  0  0  0  0  0  0  0
   -0.7500    1.2990    0.0000 C   0  0  0  0  0  0  0  0  0  0  0  0
   -1.5000    0.0000    0.0000 C   0  0  0  0  0  0  0  0  0  0  0  0
   -0.7500   -1.2990    0.0000 C   0  0  0  0  0  0  0  0  0  0  0  0
   -1.5000   -2.5981    0.0000 C   0  0  0  0  0  0  0  0  0  0  0  0
   -0.7500   -3.8971    0.0000 C   0  0  0  0  0  0  0  0  0  0  0  0
   -1.5000   -5.1962    0.0000 C   0  0  0  0  0  0  0  0  0  0  0  0
   -0.7500   -6.4952    0.0000 O   0  0  0  0  0  0  0  0  0  0  0  0
   -3.0000   -5.1962    0.0000 O   0  0  0  0  0  0  0  0  0  0  0  0
  1  2  1  0
  2  3  1  0
  3  4  1  0
  4  5  2  0
  4  6  1  0
  6  7  1  1
  7  8  1  0
  8  9  1  0
  9 10  2  0
 10 11  1  0
 11 12  2  0
 12 13  1  0
 13 14  2  0
  6 15  1  0
 15 16  1  0
 16 17  1  1
 16 18  1  0
 18 19  2  0
 18 20  1  0
 20 21  1  0
 21 22  1  0
 22 23  2  0
 23 24  1  0
 24 25  2  0
 25 26  1  0
 26 27  2  0
 27 28  1  0
 28 29  1  0
 29 30  1  6
 30 31  2  0
 30 32  1  0
 14  9  1  0
 29 20  1  0
 27 22  1  0
M  END
$$$$
16847
     RDKit          2D

 27 28  0  0  0  0  0  0  0  0999 V2000
    1.5000  -10.3923    0.0000 C   0  0  0  0  0  0  0  0  0  0  0  0
    0.7500   -9.0933    0.0000 C   0  0  0  0  0  0  0  0  0  0  0  0
    1.5000   -7.7942    0.0000 O   0  0  0  0  0  0  0  0  0  0  0  0
    0.7500   -6.4952    0.0000 C   0  0  0  0  0  0  0  0  0  0  0  0
   -0.7500   -6.4952    0.0000 O   0  0  0  0  0  0  0  0  0  0  0  0
    1.5000   -5.1962    0.0000 C   0  0  0  0  0  0  0  0  0  0  0  0
    0.7500   -3.8971    0.0000 C   0  0  0  0  0  0  0  0  0  0  0  0
    1.5000   -2.5981    0.0000 C   0  0  0  0  0  0  0  0  0  0  0  0
    0.7500   -1.2990    0.0000 C   0  0  0  0  0  0  0  0  0  0  0  0
    1.5000    0.0000    0.0000 C   0  0  0  0  0  0  0  0  0  0  0  0
    0.7500    1.2990    0.0000 C   0  0  0  0  0  0  0  0  0  0  0  0
   -0.7500    1.2990    0.0000 C   0  0  0  0  0  0  0  0  0  0  0  0
   -1.5000    0.0000    0.0000 C   0  0  0  0  0  0  0  0  0  0  0  0
   -0.7500   -1.2990    0.0000 C   0  0  0  0  0  0  0  0  0  0  0  0
    3.0000   -5.1962    0.0000 N   0  0  0  0  0  0  0  0  0  0  0  0
    3.7500   -6.4952    0.0000 C   0  0  0  0  0  0  0  0  0  0  0  0
    3.0000   -7.7942    0.0000 C   0  0  0  0  0  0  0  0  0  0  0  0
    5.2500   -6.4952    0.0000 C   0  0  0  0  0  0  0  0  0  0  0  0
    6.0000   -5.1962    0.0000 O   0  0  0  0  0  0  0  0  0  0  0  0
    6.0000   -7.7942    0.0000 N   0  0  0  0  0  0  0  0  0  0  0  0
    5.3899   -9.1645    0.0000 C   0  0  0  0  0  0  0  0  0  0  0  0
    6.5046  -10.1682    0.0000 C   0  0  0  0  0  0  0  0  0  0  0  0
    7.8037   -9.4182    0.0000 C   0  0  0  0  0  0  0  0  0  0  0  0
    7.4918   -7.9510    0.0000 C   0  0  0  0  0  0  0  0  0  0  0  0
    8.4955   -6.8363    0.0000 C   0  0  0  0  0  0  0  0  0  0  0  0
    8.0320   -5.4097    0.0000 O   0  0  0  0  0  0  0  0  0  0  0  0
    9.9627   -7.1482    0.0000 O   0  0  0  0  0  0  0  0  0  0  0  0
  1  2  1  0
  2  3  1  0
  3  4  1  0
  4  5  2  0
  4  6  1  0
  6  7  1  6
  7  8  1  0
  8  9  1  0
  9 10  2  0
 10 11  1  0
 11 12  2  0
 12 13  1  0
 13 14  2  0
  6 15  1  0
 15 16  1  0
 16 17  1  6
 16 18  1  0
 18 19  2  0
 18 20  1  0
 20 21  1  0
 21 22  1  0
 22 23  1  0
 23 24  1  0
 24 25  1  6
 25 26  2  0
 25 27  1  0
 14  9  1  0
 24 20  1  0
M  END
$$$$
674610
     RDKit          2D

 35 35  0  0  0  0  0  0  0  0999 V2000
    1.5000  -10.3923    0.0000 C   0  0  0  0  0  0  0  0  0  0  0  0
    0.7500   -9.0933    0.0000 C   0  0  0  0  0  0  0  0  0  0  0  0
    1.5000   -7.7942    0.0000 O   0  0  0  0  0  0  0  0  0  0  0  0
    0.7500   -6.4952    0.0000 C   0  0  0  0  0  0  0  0  0  0  0  0
   -0.7500   -6.4952    0.0000 O   0  0  0  0  0  0  0  0  0  0  0  0
    1.5000   -5.1962    0.0000 C   0  0  0  0  0  0  0  0  0  0  0  0
    0.7500   -3.8971    0.0000 C   0  0  0  0  0  0  0  0  0  0  0  0
    1.5000   -2.5981    0.0000 C   0  0  0  0  0  0  0  0  0  0  0  0
    0.7500   -1.2990    0.0000 C   0  0  0  0  0  0  0  0  0  0  0  0
    1.5000    0.0000    0.0000 C   0  0  0  0  0  0  0  0  0  0  0  0
    0.7500    1.2990    0.0000 C   0  0  0  0  0  0  0  0  0  0  0  0
   -0.7500    1.2990    0.0000 C   0  0  0  0  0  0  0  0  0  0  0  0
   -1.5000    0.0000    0.0000 C   0  0  0  0  0  0  0  0  0  0  0  0
   -0.7500   -1.2990    0.0000 C   0  0  0  0  0  0  0  0  0  0  0  0
    3.0000   -5.1962    0.0000 N   0  0  0  0  0  0  0  0  0  0  0  0
    3.7500   -6.4952    0.0000 C   0  0  0  0  0  0  0  0  0  0  0  0
    3.0000   -7.7942    0.0000 C   0  0  0  0  0  0  0  0  0  0  0  0
    5.2500   -6.4952    0.0000 C   0  0  0  0  0  0  0  0  0  0  0  0
    6.0000   -5.1962    0.0000 O   0  0  0  0  0  0  0  0  0  0  0  0
    6.0000   -7.7942    0.0000 N   0  0  0  0  0  0  0  0  0  0  0  0
    5.3899   -9.1645    0.0000 C   0  0  0  0  0  0  0  0  0  0  0  0
    6.5046  -10.1682    0.0000 C   0  0  0  0  0  0  0  0  0  0  0  0
    7.8037   -9.4182    0.0000 C   0  0  0  0  0  0  0  0  0  0  0  0
    7.4918   -7.9510    0.0000 C   0  0  0  0  0  0  0  0  0  0  0  0
    8.4955   -6.8363    0.0000 C   0  0  0  0  0  0  0  0  0  0  0  0
    8.0320   -5.4097    0.0000 O   0  0  0  0  0  0  0  0  0  0  0  0
    9.9627   -7.1482    0.0000 O   0  0  0  0  0  0  0  0  0  0  0  0
   10.9627   -1.2990    0.0000 O   0  0  0  0  0  0  0  0  0  0  0  0
   12.4627   -1.2990    0.0000 C   0  0  0  0  0  0  0  0  0  0  0  0
   13.2127   -2.5981    0.0000 O   0  0  0  0  0  0  0  0  0  0  0  0
   13.2127    0.0000    0.0000 C   0  0  0  0  0  0  0  0  0  0  0  0
   14.7127    0.0000    0.0000 C   0  0  0  0  0  0  0  0  0  0  0  0
   15.4627   -1.2990    0.0000 C   0  0  0  0  0  0  0  0  0  0  0  0
   14.7127   -2.5981    0.0000 O   0  0  0  0  0  0  0  0  0  0  0  0
   16.9627   -1.2990    0.0000 O   0  0  0  0  0  0  0  0  0  0  0  0
  1  2  1  0
  2  3  1  0
  3  4  1  0
  4  5  2  0
  4  6  1  0
  6  7  1  6
  7  8  1  0
  8  9  1  0
  9 10  2  0
 10 11  1  0
 11 12  2  0
 12 13  1  0
 13 14  2  0
  6 15  1  0
 15 16  1  0
 16 17  1  6
 16 18  1  0
 18 19  2  0
 18 20  1  0
 20 21  1  0
 21 22  1  0
 22 23  1  0
 23 24  1  0
 24 25  1  6
 25 26  2  0
 25 27  1  0
 28 29  1  0
 29 30  2  0
 29 31  1  0
 31 32  2  0
 32 33  1  0
 33 34  2  0
 33 35  1  0
 14  9  1  0
 24 20  1  0
M  END
$$$$
421317
     RDKit          2D

 31 33  0  0  0  0  0  0  0  0999 V2000
    5.6260  -10.9888    0.0000 C   0  0  0  0  0  0  0  0  0  0  0  0
    5.3142   -9.5216    0.0000 C   0  0  0  0  0  0  0  0  0  0  0  0
    3.8876   -9.0580    0.0000 O   0  0  0  0  0  0  0  0  0  0  0  0
    3.5757   -7.5908    0.0000 C   0  0  0  0  0  0  0  0  0  0  0  0
    4.6904   -6.5871    0.0000 O   0  0  0  0  0  0  0  0  0  0  0  0
    2.1491   -7.1273    0.0000 C   0  0  0  0  0  0  0  0  0  0  0  0
    1.0344   -8.1310    0.0000 C   0  0  0  0  0  0  0  0  0  0  0  0
    1.3463   -9.5982    0.0000 C   0  0  0  0  0  0  0  0  0  0  0  0
    0.2316  -10.6019    0.0000 C   0  0  0  0  0  0  0  0  0  0  0  0
   -1.1950  -10.1384    0.0000 C   0  0  0  0  0  0  0  0  0  0  0  0
   -2.3097  -11.1421    0.0000 C   0  0  0  0  0  0  0  0  0  0  0  0
   -1.9979  -12.6093    0.0000 C   0  0  0  0  0  0  0  0  0  0  0  0
   -0.5713  -13.0728    0.0000 C   0  0  0  0  0  0  0  0  0  0  0  0
    0.5434  -12.0691    0.0000 C   0  0  0  0  0  0  0  0  0  0  0  0
    1.8373   -5.6601    0.0000 N   0  0  0  0  0  0  0  0  0  0  0  0
    2.9520   -4.6564    0.0000 C   0  0  0  0  0  0  0  0  0  0  0  0
    4.3786   -5.1199    0.0000 C   0  0  0  0  0  0  0  0  0  0  0  0
    2.6401   -3.1891    0.0000 C   0  0  0  0  0  0  0  0  0  0  0  0
    3.7548   -2.1855    0.0000 O   0  0  0  0  0  0  0  0  0  0  0  0
    1.2135   -2.7256    0.0000 N   0  0  0  0  0  0  0  0  0  0  0  0
   -0.0000   -3.6073    0.0000 C   0  0  0  0  0  0  0  0  0  0  0  0
   -0.1568   -5.0991    0.0000 C   0  0  0  0  0  0  0  0  0  0  0  0
   -1.5271   -5.7092    0.0000 C   0  0  0  0  0  0  0  0  0  0  0  0
   -2.7406   -4.8275    0.0000 C   0  0  0  0  0  0  0  0  0  0  0  0
   -2.5838   -3.3357    0.0000 C   0  0  0  0  0  0  0  0  0  0  0  0
   -1.2135   -2.7256    0.0000 C   0  0  0  0  0  0  0  0  0  0  0  0
   -0.7500   -1.2990    0.0000 C   0  0  0  0  0  0  0  0  0  0  0  0
    0.7500   -1.2990    0.0000 C   0  0  0  0  0  0  0  0  0  0  0  0
    1.6317   -0.0855    0.0000 C   0  0  0  0  0  0  0  0  0  0  0  0
    1.0216    1.2848    0.0000 O   0  0  0  0  0  0  0  0  0  0  0  0
    3.1235   -0.2423    0.0000 O   0  0  0  0  0  0  0  0  0  0  0  0
  1  2  1  0
  2  3  1  0
  3  4  1  0
  4  5  2  0
  4  6  1  0
  6  7  1  6
  7  8  1  0
  8  9  1  0
  9 10  2  0
 10 11  1  0
 11 12  2  0
 12 13  1  0
 13 14  2  0
  6 15  1  0
 15 16  1  0
 16 17  1  6
 16 18  1  0
 18 19  2  0
 18 20  1  0
 20 21  1  0
 21 22  1  1
 22 23  1  0
 23 24  1  0
 24 25  1  0
 26 25  1  6
 26 27  1  0
 27 28  1  0
 28 29  1  1
 29 30  2  0
 29 31  1  0
 14  9  1  0
 28 20  1  0
 26 21  1  0
M  END
$$$$
189203
     RDKit          2D

 30 32  0  0  0  0  0  0  0  0999 V2000
    9.6729    1.4264    0.0000 C   0  0  0  0  0  0  0  0  0  0  0  0
    8.3026    2.0365    0.0000 C   0  0  0  0  0  0  0  0  0  0  0  0
    7.0891    1.1548    0.0000 O   0  0  0  0  0  0  0  0  0  0  0  0
    5.7188    1.7649    0.0000 C   0  0  0  0  0  0  0  0  0  0  0  0
    5.5620    3.2567    0.0000 O   0  0  0  0  0  0  0  0  0  0  0  0
    4.5053    0.8832    0.0000 C   0  0  0  0  0  0  0  0  0  0  0  0
    4.6620   -0.6086    0.0000 C   0  0  0  0  0  0  0  0  0  0  0  0
    6.0324   -1.2187    0.0000 C   0  0  0  0  0  0  0  0  0  0  0  0
    6.1892   -2.7105    0.0000 C   0  0  0  0  0  0  0  0  0  0  0  0
    4.9756   -3.5921    0.0000 C   0  0  0  0  0  0  0  0  0  0  0  0
    5.1324   -5.0839    0.0000 C   0  0  0  0  0  0  0  0  0  0  0  0
    6.5027   -5.6940    0.0000 C   0  0  0  0  0  0  0  0  0  0  0  0
    7.7163   -4.8123    0.0000 C   0  0  0  0  0  0  0  0  0  0  0  0
    7.5595   -3.3206    0.0000 C   0  0  0  0  0  0  0  0  0  0  0  0
    3.1349    1.4933    0.0000 N   0  0  0  0  0  0  0  0  0  0  0  0
    2.9781    2.9851    0.0000 C   0  0  0  0  0  0  0  0  0  0  0  0
    4.1917    3.8668    0.0000 C   0  0  0  0  0  0  0  0  0  0  0  0
    1.6078    3.5952    0.0000 C   0  0  0  0  0  0  0  0  0  0  0  0
    1.4510    5.0870    0.0000 O   0  0  0  0  0  0  0  0  0  0  0  0
    0.3943    2.7135    0.0000 N   0  0  0  0  0  0  0  0  0  0  0  0
    0.3943    1.2135    0.0000 C   0  0  0  0  0  0  0  0  0  0  0  0
    1.2760    0.0000    0.0000 C   0  0  0  0  0  0  0  0  0  0  0  0
    0.3943   -1.2135    0.0000 C   0  0  0  0  0  0  0  0  0  0  0  0
   -1.0323   -0.7500    0.0000 C   0  0  0  0  0  0  0  0  0  0  0  0
   -1.0323    0.7500    0.0000 C   0  0  0  0  0  0  0  0  0  0  0  0
   -1.9140    1.9635    0.0000 C   0  0  0  0  0  0  0  0  0  0  0  0
   -1.0323    3.1771    0.0000 C   0  0  0  0  0  0  0  0  0  0  0  0
   -1.4958    4.6036    0.0000 C   0  0  0  0  0  0  0  0  0  0  0  0
   -2.9630    4.9155    0.0000 O   0  0  0  0  0  0  0  0  0  0  0  0
   -0.4921    5.7184    0.0000 O   0  0  0  0  0  0  0  0  0  0  0  0
  1  2  1  0
  2  3  1  0
  3  4  1  0
  4  5  2  0
  4  6  1  0
  6  7  1  6
  7  8  1  0
  8  9  1  0
  9 10  2  0
 10 11  1  0
 11 12  2  0
 12 13  1  0
 13 14  2  0
  6 15  1  0
 15 16  1  0
 16 17  1  6
 16 18  1  0
 18 19  2  0
 18 20  1  0
 20 21  1  0
 21 22  1  1
 22 23  1  0
 23 24  1  0
 25 24  1  1
 25 26  1  0
 26 27  1  0
 27 28  1  1
 28 29  2  0
 28 30  1  0
 14  9  1  0
 27 20  1  0
 25 21  1  0
M  END
$$$$
61706
     RDKit          2D

 31 33  0  0  0  0  0  0  0  0999 V2000
    6.4952   -6.8350    0.0000 C   0  0  0  0  0  0  0  0  0  0  0  0
    5.1962   -6.0850    0.0000 C   0  0  0  0  0  0  0  0  0  0  0  0
    3.8971   -6.8350    0.0000 O   0  0  0  0  0  0  0  0  0  0  0  0
    2.5981   -6.0850    0.0000 C   0  0  0  0  0  0  0  0  0  0  0  0
    2.5981   -4.5850    0.0000 O   0  0  0  0  0  0  0  0  0  0  0  0
    1.2990   -6.8350    0.0000 C   0  0  0  0  0  0  0  0  0  0  0  0
    1.2990   -8.3350    0.0000 C   0  0  0  0  0  0  0  0  0  0  0  0
    2.5981   -9.0850    0.0000 C   0  0  0  0  0  0  0  0  0  0  0  0
    2.5981  -10.5850    0.0000 C   0  0  0  0  0  0  0  0  0  0  0  0
    3.8971  -11.3350    0.0000 C   0  0  0  0  0  0  0  0  0  0  0  0
    3.8971  -12.8350    0.0000 C   0  0  0  0  0  0  0  0  0  0  0  0
    2.5981  -13.5850    0.0000 C   0  0  0  0  0  0  0  0  0  0  0  0
    1.2990  -12.8350    0.0000 C   0  0  0  0  0  0  0  0  0  0  0  0
    1.2990  -11.3350    0.0000 C   0  0  0  0  0  0  0  0  0  0  0  0
   -0.0000   -6.0850    0.0000 N   0  0  0  0  0  0  0  0  0  0  0  0
   -0.0000   -4.5850    0.0000 C   0  0  0  0  0  0  0  0  0  0  0  0
    1.3515   -3.9342    0.0000 C   0  0  0  0  0  0  0  0  0  0  0  0
    1.6852   -2.4718    0.0000 C   0  0  0  0  0  0  0  0  0  0  0  0
    0.7500   -1.2990    0.0000 C   0  0  0  0  0  0  0  0  0  0  0  0
    1.5000    0.0000    0.0000 C   0  0  0  0  0  0  0  0  0  0  0  0
    0.7500    1.2990    0.0000 C   0  0  0  0  0  0  0  0  0  0  0  0
   -0.7500    1.2990    0.0000 C   0  0  0  0  0  0  0  0  0  0  0  0
   -1.5000    0.0000    0.0000 C   0  0  0  0  0  0  0  0  0  0  0  0
   -0.7500   -1.2990    0.0000 C   0  0  0  0  0  0  0  0  0  0  0  0
   -1.6852   -2.4718    0.0000 N   0  0  0  0  0  0  0  0  0  0  0  0
   -3.1476   -2.1380    0.0000 C   0  0  0  0  0  0  0  0  0  0  0  0
   -3.5898   -0.7046    0.0000 C   0  0  0  0  0  0  0  0  0  0  0  0
   -2.5695    0.3949    0.0000 O   0  0  0  0  0  0  0  0  0  0  0  0
   -5.0522   -0.3709    0.0000 O   0  0  0  0  0  0  0  0  0  0  0  0
   -1.3515   -3.9342    0.0000 C   0  0  0  0  0  0  0  0  0  0  0  0
   -2.5242   -4.8694    0.0000 O   0  0  0  0  0  0  0  0  0  0  0  0
  1  2  1  0
  2  3  1  0
  3  4  1  0
  4  5  2  0
  4  6  1  0
  6  7  1  6
  7  8  1  0
  8  9  1  0
  9 10  2  0
 10 11  1  0
 11 12  2  0
 12 13  1  0
 13 14  2  0
  6 15  1  0
 16 15  1  6
 16 17  1  0
 17 18  1  0
 18 19  1  0
 19 20  2  0
 20 21  1  0
 21 22  2  0
 22 23  1  0
 23 24  2  0
 24 25  1  0
 25 26  1  0
 26 27  1  0
 27 28  2  0
 27 29  1  0
 25 30  1  0
 30 31  2  0
 14  9  1  0
 30 16  1  0
 24 19  1  0
M  END
$$$$
4193
     RDKit          2D

 26 26  0  0  0  0  0  0  0  0999 V2000
   15.0000   -7.7942    0.0000 C   0  0  0  0  0  0  0  0  0  0  0  0
   14.2500   -6.4952    0.0000 C   0  0  0  0  0  0  0  0  0  0  0  0
   12.7500   -6.4952    0.0000 O   0  0  0  0  0  0  0  0  0  0  0  0
   12.0000   -5.1962    0.0000 C   0  0  0  0  0  0  0  0  0  0  0  0
   12.7500   -3.8971    0.0000 O   0  0  0  0  0  0  0  0  0  0  0  0
   10.5000   -5.1962    0.0000 C   0  0  0  0  0  0  0  0  0  0  0  0
    9.7500   -3.8971    0.0000 C   0  0  0  0  0  0  0  0  0  0  0  0
   10.5000   -2.5981    0.0000 C   0  0  0  0  0  0  0  0  0  0  0  0
    8.2500   -3.8971    0.0000 C   0  0  0  0  0  0  0  0  0  0  0  0
    7.5000   -2.5981    0.0000 C   0  0  0  0  0  0  0  0  0  0  0  0
    6.0000   -2.5981    0.0000 C   0  0  0  0  0  0  0  0  0  0  0  0
    5.2500   -1.2990    0.0000 C   0  0  0  0  0  0  0  0  0  0  0  0
    6.0000    0.0000    0.0000 C   0  0  0  0  0  0  0  0  0  0  0  0
    3.7500   -1.2990    0.0000 C   0  0  0  0  0  0  0  0  0  0  0  0
    3.0000    0.0000    0.0000 C   0  0  0  0  0  0  0  0  0  0  0  0
    1.5000    0.0000    0.0000 C   0  0  0  0  0  0  0  0  0  0  0  0
    0.7500   -1.2990    0.0000 C   0  0  0  0  0  0  0  0  0  0  0  0
    1.5000   -2.5981    0.0000 C   0  0  0  0  0  0  0  0  0  0  0  0
   -0.7500   -1.2990    0.0000 C   0  0  0  0  0  0  0  0  0  0  0  0
   -1.5000    0.0000    0.0000 C   0  0  0  0  0  0  0  0  0  0  0  0
   -3.0000    0.0000    0.0000 O   0  0  0  0  0  0  0  0  0  0  0  0
   -3.7500   -1.2990    0.0000 C   0  0  0  0  0  0  0  0  0  0  0  0
   -0.7500    1.2990    0.0000 C   0  0  0  0  0  0  0  0  0  0  0  0
   -1.5000    2.5981    0.0000 C   0  0  0  0  0  0  0  0  0  0  0  0
    0.7500    1.2990    0.0000 C   0  0  0  0  0  0  0  0  0  0  0  0
    1.5000    2.5981    0.0000 C   0  0  0  0  0  0  0  0  0  0  0  0
  1  2  1  0
  2  3  1  0
  3  4  1  0
  4  5  2  0
  4  6  1  0
  6  7  2  0
  7  8  1  0
  7  9  1  0
  9 10  2  0
 10 11  1  0
 11 12  2  0
 12 13  1  0
 12 14  1  0
 14 15  2  0
 15 16  1  0
 16 17  2  0
 17 18  1  0
 17 19  1  0
 19 20  2  0
 20 21  1  0
 21 22  1  0
 20 23  1  0
 23 24  1  0
 23 25  2  0
 25 26  1  0
 25 16  1  0
M  END
$$$$
248669
     RDKit          2D

 33 35  0  0  0  0  0  0  0  0999 V2000
    5.2500   -1.2990    0.0000 C   0  0  0  0  0  0  0  0  0  0  0  0
    3.7500   -1.2990    0.0000 C   0  0  0  0  0  0  0  0  0  0  0  0
    3.0000    0.0000    0.0000 O   0  0  0  0  0  0  0  0  0  0  0  0
    1.5000    0.0000    0.0000 C   0  0  0  0  0  0  0  0  0  0  0  0
    0.7500   -1.2990    0.0000 C   0  0  0  0  0  0  0  0  0  0  0  0
   -0.7500   -1.2990    0.0000 C   0  0  0  0  0  0  0  0  0  0  0  0
   -1.5000   -2.5981    0.0000 C   0  0  0  0  0  0  0  0  0  0  0  0
   -3.0000   -2.5981    0.0000 C   0  0  0  0  0  0  0  0  0  0  0  0
   -3.7500   -1.2990    0.0000 O   0  0  0  0  0  0  0  0  0  0  0  0
   -3.7500   -3.8971    0.0000 N   0  0  0  0  0  0  0  0  0  0  0  0
   -5.2500   -3.8971    0.0000 C   0  0  0  0  0  0  0  0  0  0  0  0
   -6.0000   -5.1962    0.0000 C   0  0  0  0  0  0  0  0  0  0  0  0
   -5.2500   -6.4952    0.0000 C   0  0  0  0  0  0  0  0  0  0  0  0
   -6.0000   -7.7942    0.0000 C   0  0  0  0  0  0  0  0  0  0  0  0
   -3.7500   -6.4952    0.0000 C   0  0  0  0  0  0  0  0  0  0  0  0
   -6.0000   -2.5981    0.0000 C   0  0  0  0  0  0  0  0  0  0  0  0
   -5.2500   -1.2990    0.0000 C   0  0  0  0  0  0  0  0  0  0  0  0
   -6.0000    0.0000    0.0000 C   0  0  0  0  0  0  0  0  0  0  0  0
   -7.5000    0.0000    0.0000 C   0  0  0  0  0  0  0  0  0  0  0  0
   -8.2500   -1.2990    0.0000 C   0  0  0  0  0  0  0  0  0  0  0  0
   -7.5000   -2.5981    0.0000 C   0  0  0  0  0  0  0  0  0  0  0  0
   -8.2500   -3.8971    0.0000 N   0  0  0  0  0  0  0  0  0  0  0  0
   -9.7500   -3.8971    0.0000 C   0  0  0  0  0  0  0  0  0  0  0  0
  -10.5000   -5.1962    0.0000 C   0  0  0  0  0  0  0  0  0  0  0  0
   -9.7500   -6.4952    0.0000 C   0  0  0  0  0  0  0  0  0  0  0  0
   -8.2500   -6.4952    0.0000 C   0  0  0  0  0  0  0  0  0  0  0  0
   -7.5000   -5.1962    0.0000 C   0  0  0  0  0  0  0  0  0  0  0  0
   -1.5000    0.0000    0.0000 C   0  0  0  0  0  0  0  0  0  0  0  0
   -0.7500    1.2990    0.0000 C   0  0  0  0  0  0  0  0  0  0  0  0
    0.7500    1.2990    0.0000 C   0  0  0  0  0  0  0  0  0  0  0  0
    1.5000    2.5981    0.0000 C   0  0  0  0  0  0  0  0  0  0  0  0
    0.7500    3.8971    0.0000 O   0  0  0  0  0  0  0  0  0  0  0  0
    3.0000    2.5981    0.0000 O   0  0  0  0  0  0  0  0  0  0  0  0
  1  2  1  0
  2  3  1  0
  3  4  1  0
  4  5  2  0
  5  6  1  0
  6  7  1  0
  7  8  1  0
  8  9  2  0
  8 10  1  0
 10 11  1  0
 11 12  1  1
 12 13  1  0
 13 14  1  0
 13 15  1  0
 11 16  1  0
 16 17  2  0
 17 18  1  0
 18 19  2  0
 19 20  1  0
 20 21  2  0
 21 22  1  0
 22 23  1  0
 23 24  1  0
 24 25  1  0
 25 26  1  0
 26 27  1  0
  6 28  2  0
 28 29  1  0
 29 30  2  0
 30 31  1  0
 31 32  2  0
 31 33  1  0
 30  4  1  0
 21 16  1  0
 27 22  1  0
M  END
$$$$
458773
     RDKit          2D

 32 34  0  0  0  0  0  0  0  0999 V2000
   -7.7942   -5.1073    0.0000 C   0  0  0  0  0  0  0  0  0  0  0  0
   -6.4952   -5.8573    0.0000 C   0  0  0  0  0  0  0  0  0  0  0  0
   -5.1962   -5.1073    0.0000 O   0  0  0  0  0  0  0  0  0  0  0  0
   -3.8971   -5.8573    0.0000 C   0  0  0  0  0  0  0  0  0  0  0  0
   -2.5981   -5.1073    0.0000 C   0  0  0  0  0  0  0  0  0  0  0  0
   -1.2990   -5.8573    0.0000 C   0  0  0  0  0  0  0  0  0  0  0  0
   -1.2990   -7.3573    0.0000 C   0  0  0  0  0  0  0  0  0  0  0  0
   -2.5981   -8.1073    0.0000 C   0  0  0  0  0  0  0  0  0  0  0  0
   -3.8971   -7.3573    0.0000 C   0  0  0  0  0  0  0  0  0  0  0  0
   -5.1962   -8.1073    0.0000 O   0  0  0  0  0  0  0  0  0  0  0  0
   -5.1962   -9.6073    0.0000 C   0  0  0  0  0  0  0  0  0  0  0  0
   -0.0000   -5.1073    0.0000 C   0  0  0  0  0  0  0  0  0  0  0  0
    1.2990   -5.8573    0.0000 C   0  0  0  0  0  0  0  0  0  0  0  0
    1.2990   -7.3573    0.0000 S   0  0  0  0  0  0  0  0  0  0  0  0
   -0.2010   -7.3573    0.0000 O   0  0  0  0  0  0  0  0  0  0  0  0
    2.7990   -7.3573    0.0000 O   0  0  0  0  0  0  0  0  0  0  0  0
    1.2990   -8.8573    0.0000 C   0  0  0  0  0  0  0  0  0  0  0  0
   -0.0000   -3.6073    0.0000 N   0  0  0  0  0  0  0  0  0  0  0  0
    1.2135   -2.7256    0.0000 C   0  0  0  0  0  0  0  0  0  0  0  0
    2.6401   -3.1891    0.0000 O   0  0  0  0  0  0  0  0  0  0  0  0
    0.7500   -1.2990    0.0000 C   0  0  0  0  0  0  0  0  0  0  0  0
    1.5000    0.0000    0.0000 C   0  0  0  0  0  0  0  0  0  0  0  0
    0.7500    1.2990    0.0000 C   0  0  0  0  0  0  0  0  0  0  0  0
   -0.7500    1.2990    0.0000 C   0  0  0  0  0  0  0  0  0  0  0  0
   -1.5000    0.0000    0.0000 C   0  0  0  0  0  0  0  0  0  0  0  0
   -3.0000    0.0000    0.0000 N   0  0  0  0  0  0  0  0  0  0  0  0
   -3.7500    1.2990    0.0000 C   0  0  0  0  0  0  0  0  0  0  0  0
   -3.0000    2.5981    0.0000 O   0  0  0  0  0  0  0  0  0  0  0  0
   -5.2500    1.2990    0.0000 C   0  0  0  0  0  0  0  0  0  0  0  0
   -0.7500   -1.2990    0.0000 C   0  0  0  0  0  0  0  0  0  0  0  0
   -1.2135   -2.7256    0.0000 C   0  0  0  0  0  0  0  0  0  0  0  0
   -2.6401   -3.1891    0.0000 O   0  0  0  0  0  0  0  0  0  0  0  0
  1  2  1  0
  2  3  1  0
  3  4  1  0
  4  5  2  0
  5  6  1  0
  6  7  2  0
  7  8  1  0
  8  9  2  0
  9 10  1  0
 10 11  1  0
  6 12  1  0
 12 13  1  6
 13 14  1  0
 14 15  2  0
 14 16  2  0
 14 17  1  0
 12 18  1  0
 18 19  1  0
 19 20  2  0
 19 21  1  0
 21 22  2  0
 22 23  1  0
 23 24  2  0
 24 25  1  0
 25 26  1  0
 26 27  1  0
 27 28  2  0
 27 29  1  0
 25 30  2  0
 30 31  1  0
 31 32  2  0
  9  4  1  0
 31 18  1  0
 30 21  1  0
M  END
$$$$
441579
     RDKit          2D

 28 30  0  0  0  0  0  0  0  0999 V2000
    5.2500   -1.2990    0.0000 C   0  0  0  0  0  0  0  0  0  0  0  0
    3.7500   -1.2990    0.0000 C   0  0  0  0  0  0  0  0  0  0  0  0
    3.0000    0.0000    0.0000 O   0  0  0  0  0  0  0  0  0  0  0  0
    1.5000    0.0000    0.0000 C   0  0  0  0  0  0  0  0  0  0  0  0
    0.7500   -1.2990    0.0000 C   0  0  0  0  0  0  0  0  0  0  0  0
   -0.7500   -1.2990    0.0000 C   0  0  0  0  0  0  0  0  0  0  0  0
   -1.5000    0.0000    0.0000 C   0  0  0  0  0  0  0  0  0  0  0  0
   -3.0000    0.0000    0.0000 C   0  0  0  0  0  0  0  0  0  0  0  0
   -3.7500    1.2990    0.0000 C   0  0  0  0  0  0  0  0  0  0  0  0
   -3.0000    2.5981    0.0000 C   0  0  0  0  0  0  0  0  0  0  0  0
   -3.7500    3.8971    0.0000 C   0  0  0  0  0  0  0  0  0  0  0  0
   -5.2500    3.8971    0.0000 C   0  0  0  0  0  0  0  0  0  0  0  0
   -6.0000    2.5981    0.0000 C   0  0  0  0  0  0  0  0  0  0  0  0
   -5.2500    1.2990    0.0000 C   0  0  0  0  0  0  0  0  0  0  0  0
   -6.0000    0.0000    0.0000 Cl  0  0  0  0  0  0  0  0  0  0  0  0
   -3.0000    5.1962    0.0000 C   0  0  0  0  0  0  0  0  0  0  0  0
   -1.5000    5.1962    0.0000 O   0  0  0  0  0  0  0  0  0  0  0  0
   -0.7500    6.4952    0.0000 C   0  0  0  0  0  0  0  0  0  0  0  0
    0.7500    6.4952    0.0000 C   0  0  0  0  0  0  0  0  0  0  0  0
    1.5000    5.1962    0.0000 O   0  0  0  0  0  0  0  0  0  0  0  0
   -1.5000    7.7942    0.0000 C   0  0  0  0  0  0  0  0  0  0  0  0
   -0.7500    9.0933    0.0000 O   0  0  0  0  0  0  0  0  0  0  0  0
   -3.0000    7.7942    0.0000 C   0  0  0  0  0  0  0  0  0  0  0  0
   -3.7500    9.0933    0.0000 O   0  0  0  0  0  0  0  0  0  0  0  0
   -3.7500    6.4952    0.0000 C   0  0  0  0  0  0  0  0  0  0  0  0
   -5.2500    6.4952    0.0000 O   0  0  0  0  0  0  0  0  0  0  0  0
   -0.7500    1.2990    0.0000 C   0  0  0  0  0  0  0  0  0  0  0  0
    0.7500    1.2990    0.0000 C   0  0  0  0  0  0  0  0  0  0  0  0
  1  2  1  0
  2  3  1  0
  3  4  1  0
  4  5  2  0
  5  6  1  0
  6  7  2  0
  7  8  1  0
  8  9  1  0
  9 10  2  0
 10 11  1  0
 11 12  2  0
 12 13  1  0
 13 14  2  0
 14 15  1  0
 16 11  1  1
 16 17  1  0
 17 18  1  0
 18 19  1  1
 19 20  1  0
 18 21  1  0
 21 22  1  6
 21 23  1  0
 23 24  1  1
 23 25  1  0
 25 26  1  6
  7 27  1  0
 27 28  2  0
 28  4  1  0
 14  9  1  0
 25 16  1  0
M  END
$$$$
374064
     RDKit          2D

 29 32  0  0  0  0  0  0  0  0999 V2000
   -1.5000   -7.7942    0.0000 C   0  0  0  0  0  0  0  0  0  0  0  0
   -0.7500   -6.4952    0.0000 C   0  0  0  0  0  0  0  0  0  0  0  0
   -1.5000   -5.1962    0.0000 O   0  0  0  0  0  0  0  0  0  0  0  0
   -0.7500   -3.8971    0.0000 C   0  0  0  0  0  0  0  0  0  0  0  0
    0.7500   -3.8971    0.0000 C   0  0  0  0  0  0  0  0  0  0  0  0
    1.5000   -2.5981    0.0000 C   0  0  0  0  0  0  0  0  0  0  0  0
    0.7500   -1.2990    0.0000 C   0  0  0  0  0  0  0  0  0  0  0  0
    1.5000    0.0000    0.0000 C   0  0  0  0  0  0  0  0  0  0  0  0
    0.7500    1.2990    0.0000 C   0  0  0  0  0  0  0  0  0  0  0  0
   -0.7500    1.2990    0.0000 C   0  0  0  0  0  0  0  0  0  0  0  0
   -1.5000    0.0000    0.0000 C   0  0  0  0  0  0  0  0  0  0  0  0
   -0.7500   -1.2990    0.0000 C   0  0  0  0  0  0  0  0  0  0  0  0
   -1.5000   -2.5981    0.0000 C   0  0  0  0  0  0  0  0  0  0  0  0
   -3.0000   -2.5981    0.0000 C   0  0  0  0  0  0  0  0  0  0  0  0
   -3.7500   -1.2990    0.0000 O   0  0  0  0  0  0  0  0  0  0  0  0
   -3.7500   -3.8971    0.0000 N   0  0  0  0  0  0  0  0  0  0  0  0
   -5.2500   -3.8971    0.0000 C   0  0  0  0  0  0  0  0  0  0  0  0
   -6.3107   -4.9578    0.0000 C   0  0  0  0  0  0  0  0  0  0  0  0
   -6.9916   -6.2943    0.0000 S   0  0  0  0  0  0  0  0  0  0  0  0
   -8.4732   -6.0596    0.0000 C   0  0  0  0  0  0  0  0  0  0  0  0
   -8.5517   -7.5576    0.0000 C   0  0  0  0  0  0  0  0  0  0  0  0
   -9.9711   -6.1381    0.0000 C   0  0  0  0  0  0  0  0  0  0  0  0
   -8.7078   -4.5781    0.0000 C   0  0  0  0  0  0  0  0  0  0  0  0
   -7.3713   -3.8971    0.0000 N   0  0  0  0  0  0  0  0  0  0  0  0
   -6.3107   -2.8365    0.0000 C   0  0  0  0  0  0  0  0  0  0  0  0
   -6.3107   -1.3365    0.0000 O   0  0  0  0  0  0  0  0  0  0  0  0
  -10.0443   -3.8971    0.0000 C   0  0  0  0  0  0  0  0  0  0  0  0
  -11.3023   -4.7141    0.0000 O   0  0  0  0  0  0  0  0  0  0  0  0
  -10.1228   -2.3992    0.0000 O   0  0  0  0  0  0  0  0  0  0  0  0
  1  2  1  0
  2  3  1  0
  3  4  1  0
  4  5  2  0
  5  6  1  0
  6  7  2  0
  7  8  1  0
  8  9  2  0
  9 10  1  0
 10 11  2  0
 11 12  1  0
 12 13  2  0
 13 14  1  0
 14 15  2  0
 14 16  1  0
 17 16  1  1
 17 18  1  0
 18 19  1  1
 19 20  1  0
 20 21  1  0
 20 22  1  0
 20 23  1  0
 23 24  1  0
 24 25  1  0
 25 26  2  0
 23 27  1  6
 27 28  2  0
 27 29  1  0
 13  4  1  0
 12  7  1  0
 25 17  1  0
 24 18  1  0
M  END
$$$$
1096
     RDKit          2D

 16 17  0  0  0  0  0  0  0  0999 V2000
    5.2500   -1.2990    0.0000 C   0  0  0  0  0  0  0  0  0  0  0  0
    3.7500   -1.2990    0.0000 C   0  0  0  0  0  0  0  0  0  0  0  0
    3.0000    0.0000    0.0000 O   0  0  0  0  0  0  0  0  0  0  0  0
    1.5000    0.0000    0.0000 C   0  0  0  0  0  0  0  0  0  0  0  0
    0.7500   -1.2990    0.0000 C   0  0  0  0  0  0  0  0  0  0  0  0
   -0.7500   -1.2990    0.0000 C   0  0  0  0  0  0  0  0  0  0  0  0
   -1.5000    0.0000    0.0000 C   0  0  0  0  0  0  0  0  0  0  0  0
   -2.9672    0.3119    0.0000 N   0  0  0  0  0  0  0  0  0  0  0  0
   -3.1240    1.8037    0.0000 C   0  0  0  0  0  0  0  0  0  0  0  0
   -1.7537    2.4138    0.0000 S   0  0  0  0  0  0  0  0  0  0  0  0
   -0.7500    1.2990    0.0000 C   0  0  0  0  0  0  0  0  0  0  0  0
    0.7500    1.2990    0.0000 C   0  0  0  0  0  0  0  0  0  0  0  0
   -4.4231    2.5537    0.0000 S   0  0  0  0  0  0  0  0  0  0  0  0
   -3.6731    3.8527    0.0000 O   0  0  0  0  0  0  0  0  0  0  0  0
   -5.1731    1.2546    0.0000 O   0  0  0  0  0  0  0  0  0  0  0  0
   -5.7221    3.3037    0.0000 N   0  0  0  0  0  0  0  0  0  0  0  0
  1  2  1  0
  2  3  1  0
  3  4  1  0
  4  5  2  0
  5  6  1  0
  6  7  2  0
  7  8  1  0
  8  9  2  0
  9 10  1  0
 10 11  1  0
 11 12  2  0
  9 13  1  0
 13 14  2  0
 13 15  2  0
 13 16  1  0
 12  4  1  0
 11  7  1  0
M  END
$$$$
61181
     RDKit          2D

 28 29  0  0  0  0  0  0  0  0999 V2000
    5.2500   -1.2990    0.0000 C   0  0  0  0  0  0  0  0  0  0  0  0
    3.7500   -1.2990    0.0000 C   0  0  0  0  0  0  0  0  0  0  0  0
    3.0000    0.0000    0.0000 O   0  0  0  0  0  0  0  0  0  0  0  0
    1.5000    0.0000    0.0000 C   0  0  0  0  0  0  0  0  0  0  0  0
    0.7500   -1.2990    0.0000 C   0  0  0  0  0  0  0  0  0  0  0  0
   -0.7500   -1.2990    0.0000 C   0  0  0  0  0  0  0  0  0  0  0  0
   -1.5000    0.0000    0.0000 C   0  0  0  0  0  0  0  0  0  0  0  0
   -0.7500    1.2990    0.0000 C   0  0  0  0  0  0  0  0  0  0  0  0
    0.7500    1.2990    0.0000 C   0  0  0  0  0  0  0  0  0  0  0  0
    1.5000    2.5981    0.0000 O   0  0  0  0  0  0  0  0  0  0  0  0
    0.7500    3.8971    0.0000 C   0  0  0  0  0  0  0  0  0  0  0  0
    1.5000    5.1962    0.0000 C   0  0  0  0  0  0  0  0  0  0  0  0
    0.7500    6.4952    0.0000 N   0  0  0  0  0  0  0  0  0  0  0  0
    1.5000    7.7942    0.0000 C   0  0  0  0  0  0  0  0  0  0  0  0
    0.7500    9.0933    0.0000 C   0  0  0  0  0  0  0  0  0  0  0  0
    3.0000    7.7942    0.0000 C   0  0  0  0  0  0  0  0  0  0  0  0
    3.7500    9.0933    0.0000 C   0  0  0  0  0  0  0  0  0  0  0  0
    5.2500    9.0933    0.0000 C   0  0  0  0  0  0  0  0  0  0  0  0
    6.0000   10.3923    0.0000 C   0  0  0  0  0  0  0  0  0  0  0  0
    5.2500   11.6913    0.0000 C   0  0  0  0  0  0  0  0  0  0  0  0
    6.0000   12.9904    0.0000 O   0  0  0  0  0  0  0  0  0  0  0  0
    7.5000   12.9904    0.0000 C   0  0  0  0  0  0  0  0  0  0  0  0
    3.7500   11.6913    0.0000 C   0  0  0  0  0  0  0  0  0  0  0  0
    3.0000   10.3923    0.0000 C   0  0  0  0  0  0  0  0  0  0  0  0
    3.0000   12.9904    0.0000 S   0  0  0  0  0  0  0  0  0  0  0  0
    1.7010   12.2404    0.0000 O   0  0  0  0  0  0  0  0  0  0  0  0
    4.2990   13.7404    0.0000 O   0  0  0  0  0  0  0  0  0  0  0  0
    2.2500   14.2894    0.0000 N   0  0  0  0  0  0  0  0  0  0  0  0
  1  2  1  0
  2  3  1  0
  3  4  1  0
  4  5  2  0
  5  6  1  0
  6  7  2  0
  7  8  1  0
  8  9  2  0
  9 10  1  0
 10 11  1  0
 11 12  1  0
 12 13  1  0
 13 14  1  0
 14 15  1  6
 14 16  1  0
 16 17  1  0
 17 18  2  0
 18 19  1  0
 19 20  2  0
 20 21  1  0
 21 22  1  0
 20 23  1  0
 23 24  2  0
 23 25  1  0
 25 26  2  0
 25 27  2  0
 25 28  1  0
  9  4  1  0
 24 17  1  0
M  END
$$$$
116349
     RDKit          2D

 45 50  0  0  0  0  0  0  0  0999 V2000
    1.2990   -7.3573    0.0000 C   0  0  0  0  0  0  0  0  0  0  0  0
    1.2990   -5.8573    0.0000 C   0  0  0  0  0  0  0  0  0  0  0  0
   -0.0000   -5.1073    0.0000 O   0  0  0  0  0  0  0  0  0  0  0  0
   -0.0000   -3.6073    0.0000 C   0  0  0  0  0  0  0  0  0  0  0  0
    1.2135   -2.7256    0.0000 N   0  0  0  0  0  0  0  0  0  0  0  0
    0.7500   -1.2990    0.0000 C   0  0  0  0  0  0  0  0  0  0  0  0
    1.5000    0.0000    0.0000 C   0  0  0  0  0  0  0  0  0  0  0  0
    0.7500    1.2990    0.0000 C   0  0  0  0  0  0  0  0  0  0  0  0
   -0.7500    1.2990    0.0000 C   0  0  0  0  0  0  0  0  0  0  0  0
   -1.5000    0.0000    0.0000 C   0  0  0  0  0  0  0  0  0  0  0  0
   -3.0000    0.0000    0.0000 C   0  0  0  0  0  0  0  0  0  0  0  0
   -3.7500   -1.2990    0.0000 O   0  0  0  0  0  0  0  0  0  0  0  0
   -3.7500    1.2990    0.0000 O   0  0  0  0  0  0  0  0  0  0  0  0
   -5.2500    1.2990    0.0000 C   0  0  0  0  0  0  0  0  0  0  0  0
   -6.0000    2.5981    0.0000 C   0  0  0  0  0  0  0  0  0  0  0  0
   -6.0000    0.0000    0.0000 O   0  0  0  0  0  0  0  0  0  0  0  0
   -7.5000    0.0000    0.0000 C   0  0  0  0  0  0  0  0  0  0  0  0
   -8.2500    1.2990    0.0000 O   0  0  0  0  0  0  0  0  0  0  0  0
   -8.2500   -1.2990    0.0000 O   0  0  0  0  0  0  0  0  0  0  0  0
   -9.7500   -1.2990    0.0000 C   0  0  0  0  0  0  0  0  0  0  0  0
  -10.5000    0.0000    0.0000 C   0  0  0  0  0  0  0  0  0  0  0  0
  -12.0000    0.0000    0.0000 C   0  0  0  0  0  0  0  0  0  0  0  0
  -12.7500   -1.2990    0.0000 C   0  0  0  0  0  0  0  0  0  0  0  0
  -12.0000   -2.5981    0.0000 C   0  0  0  0  0  0  0  0  0  0  0  0
  -10.5000   -2.5981    0.0000 C   0  0  0  0  0  0  0  0  0  0  0  0
   -0.7500   -1.2990    0.0000 C   0  0  0  0  0  0  0  0  0  0  0  0
   -1.2135   -2.7256    0.0000 N   0  0  0  0  0  0  0  0  0  0  0  0
   -2.6401   -3.1891    0.0000 C   0  0  0  0  0  0  0  0  0  0  0  0
   -2.9520   -4.6564    0.0000 C   0  0  0  0  0  0  0  0  0  0  0  0
   -1.8373   -5.6601    0.0000 C   0  0  0  0  0  0  0  0  0  0  0  0
   -2.1491   -7.1273    0.0000 C   0  0  0  0  0  0  0  0  0  0  0  0
   -3.5757   -7.5908    0.0000 C   0  0  0  0  0  0  0  0  0  0  0  0
   -4.6904   -6.5871    0.0000 C   0  0  0  0  0  0  0  0  0  0  0  0
   -4.3786   -5.1199    0.0000 C   0  0  0  0  0  0  0  0  0  0  0  0
   -3.8876   -9.0580    0.0000 C   0  0  0  0  0  0  0  0  0  0  0  0
   -2.7729  -10.0617    0.0000 C   0  0  0  0  0  0  0  0  0  0  0  0
   -3.0847  -11.5290    0.0000 C   0  0  0  0  0  0  0  0  0  0  0  0
   -4.5113  -11.9925    0.0000 C   0  0  0  0  0  0  0  0  0  0  0  0
   -5.6260  -10.9888    0.0000 C   0  0  0  0  0  0  0  0  0  0  0  0
   -5.3142   -9.5216    0.0000 C   0  0  0  0  0  0  0  0  0  0  0  0
   -6.4289   -8.5179    0.0000 C   0  0  0  0  0  0  0  0  0  0  0  0
   -6.2721   -7.0261    0.0000 N   0  0  0  0  0  0  0  0  0  0  0  0
   -7.6424   -6.4160    0.0000 N   0  0  0  0  0  0  0  0  0  0  0  0
   -8.6461   -7.5307    0.0000 N   0  0  0  0  0  0  0  0  0  0  0  0
   -7.8961   -8.8297    0.0000 N   0  0  0  0  0  0  0  0  0  0  0  0
  1  2  1  0
  2  3  1  0
  3  4  1  0
  4  5  2  0
  5  6  1  0
  6  7  2  0
  7  8  1  0
  8  9  2  0
  9 10  1  0
 10 11  1  0
 11 12  2  0
 11 13  1  0
 13 14  1  0
 14 15  1  0
 14 16  1  0
 16 17  1  0
 17 18  2  0
 17 19  1  0
 19 20  1  0
 20 21  1  0
 21 22  1  0
 22 23  1  0
 23 24  1  0
 24 25  1  0
 10 26  2  0
 26 27  1  0
 27 28  1  0
 28 29  1  0
 29 30  2  0
 30 31  1  0
 31 32  2  0
 32 33  1  0
 33 34  2  0
 32 35  1  0
 35 36  2  0
 36 37  1  0
 37 38  2  0
 38 39  1  0
 39 40  2  0
 40 41  1  0
 41 42  1  0
 42 43  2  0
 43 44  1  0
 44 45  1  0
 27  4  1  0
 26  6  1  0
 25 20  1  0
 34 29  1  0
 40 35  1  0
 45 41  2  0
M  END
$$$$
1340892
     RDKit          2D

 42 47  0  0  0  0  0  0  0  0999 V2000
    1.2990   -7.3573    0.0000 C   0  0  0  0  0  0  0  0  0  0  0  0
    1.2990   -5.8573    0.0000 C   0  0  0  0  0  0  0  0  0  0  0  0
   -0.0000   -5.1073    0.0000 O   0  0  0  0  0  0  0  0  0  0  0  0
   -0.0000   -3.6073    0.0000 C   0  0  0  0  0  0  0  0  0  0  0  0
    1.2135   -2.7256    0.0000 N   0  0  0  0  0  0  0  0  0  0  0  0
    0.7500   -1.2990    0.0000 C   0  0  0  0  0  0  0  0  0  0  0  0
    1.5000    0.0000    0.0000 C   0  0  0  0  0  0  0  0  0  0  0  0
    0.7500    1.2990    0.0000 C   0  0  0  0  0  0  0  0  0  0  0  0
   -0.7500    1.2990    0.0000 C   0  0  0  0  0  0  0  0  0  0  0  0
   -1.5000    0.0000    0.0000 C   0  0  0  0  0  0  0  0  0  0  0  0
   -3.0000    0.0000    0.0000 C   0  0  0  0  0  0  0  0  0  0  0  0
   -3.7500   -1.2990    0.0000 O   0  0  0  0  0  0  0  0  0  0  0  0
   -3.7500    1.2990    0.0000 O   0  0  0  0  0  0  0  0  0  0  0  0
   -5.2500    1.2990    0.0000 C   0  0  0  0  0  0  0  0  0  0  0  0
   -6.0000    2.5981    0.0000 C   0  0  0  0  0  0  0  0  0  0  0  0
   -7.4918    2.7549    0.0000 C   0  0  0  0  0  0  0  0  0  0  0  0
   -8.4955    1.6402    0.0000 C   0  0  0  0  0  0  0  0  0  0  0  0
   -7.8037    4.2221    0.0000 O   0  0  0  0  0  0  0  0  0  0  0  0
   -6.5046    4.9721    0.0000 C   0  0  0  0  0  0  0  0  0  0  0  0
   -6.3478    6.4639    0.0000 O   0  0  0  0  0  0  0  0  0  0  0  0
   -5.3899    3.9684    0.0000 O   0  0  0  0  0  0  0  0  0  0  0  0
   -0.7500   -1.2990    0.0000 C   0  0  0  0  0  0  0  0  0  0  0  0
   -1.2135   -2.7256    0.0000 N   0  0  0  0  0  0  0  0  0  0  0  0
   -2.6401   -3.1891    0.0000 C   0  0  0  0  0  0  0  0  0  0  0  0
   -2.9520   -4.6564    0.0000 C   0  0  0  0  0  0  0  0  0  0  0  0
   -1.8373   -5.6601    0.0000 C   0  0  0  0  0  0  0  0  0  0  0  0
   -2.1491   -7.1273    0.0000 C   0  0  0  0  0  0  0  0  0  0  0  0
   -3.5757   -7.5908    0.0000 C   0  0  0  0  0  0  0  0  0  0  0  0
   -4.6904   -6.5871    0.0000 C   0  0  0  0  0  0  0  0  0  0  0  0
   -4.3786   -5.1199    0.0000 C   0  0  0  0  0  0  0  0  0  0  0  0
   -3.8876   -9.0580    0.0000 C   0  0  0  0  0  0  0  0  0  0  0  0
   -2.7729  -10.0617    0.0000 C   0  0  0  0  0  0  0  0  0  0  0  0
   -3.0847  -11.5290    0.0000 C   0  0  0  0  0  0  0  0  0  0  0  0
   -4.5113  -11.9925    0.0000 C   0  0  0  0  0  0  0  0  0  0  0  0
   -5.6260  -10.9888    0.0000 C   0  0  0  0  0  0  0  0  0  0  0  0
   -5.3142   -9.5216    0.0000 C   0  0  0  0  0  0  0  0  0  0  0  0
   -6.4289   -8.5179    0.0000 C   0  0  0  0  0  0  0  0  0  0  0  0
   -6.2721   -7.0261    0.0000 N   0  0  0  0  0  0  0  0  0  0  0  0
   -7.6424   -6.4160    0.0000 O   0  0  0  0  0  0  0  0  0  0  0  0
   -8.6461   -7.5307    0.0000 C   0  0  0  0  0  0  0  0  0  0  0  0
  -10.1379   -7.3739    0.0000 O   0  0  0  0  0  0  0  0  0  0  0  0
   -7.8961   -8.8297    0.0000 N   0  0  0  0  0  0  0  0  0  0  0  0
  1  2  1  0
  2  3  1  0
  3  4  1  0
  4  5  2  0
  5  6  1  0
  6  7  2  0
  7  8  1  0
  8  9  2  0
  9 10  1  0
 10 11  1  0
 11 12  2  0
 11 13  1  0
 13 14  1  0
 14 15  1  0
 15 16  2  0
 16 17  1  0
 16 18  1  0
 18 19  1  0
 19 20  2  0
 19 21  1  0
 10 22  2  0
 22 23  1  0
 23 24  1  0
 24 25  1  0
 25 26  2  0
 26 27  1  0
 27 28  2  0
 28 29  1  0
 29 30  2  0
 28 31  1  0
 31 32  2  0
 32 33  1  0
 33 34  2  0
 34 35  1  0
 35 36  2  0
 36 37  1  0
 37 38  2  0
 38 39  1  0
 39 40  1  0
 40 41  2  0
 40 42  1  0
 23  4  1  0
 22  6  1  0
 21 15  1  0
 30 25  1  0
 36 31  1  0
 42 37  1  0
M  END
$$$$
222633
     RDKit          2D

 16 16  0  0  0  0  0  0  0  0999 V2000
    7.2760    0.0000    0.0000 C   0  0  0  0  0  0  0  0  0  0  0  0
    6.5260   -1.2990    0.0000 C   0  0  0  0  0  0  0  0  0  0  0  0
    5.0260   -1.2990    0.0000 S   0  0  0  0  0  0  0  0  0  0  0  0
    5.0260    0.2010    0.0000 O   0  0  0  0  0  0  0  0  0  0  0  0
    5.0260   -2.7990    0.0000 O   0  0  0  0  0  0  0  0  0  0  0  0
    3.5260   -1.2990    0.0000 C   0  0  0  0  0  0  0  0  0  0  0  0
    2.7760    0.0000    0.0000 C   0  0  0  0  0  0  0  0  0  0  0  0
    1.2760    0.0000    0.0000 N   0  0  0  0  0  0  0  0  0  0  0  0
    0.3943    1.2135    0.0000 C   0  0  0  0  0  0  0  0  0  0  0  0
    0.8578    2.6401    0.0000 C   0  0  0  0  0  0  0  0  0  0  0  0
   -1.0323    0.7500    0.0000 N   0  0  0  0  0  0  0  0  0  0  0  0
   -1.0323   -0.7500    0.0000 C   0  0  0  0  0  0  0  0  0  0  0  0
    0.3943   -1.2135    0.0000 C   0  0  0  0  0  0  0  0  0  0  0  0
    0.8578   -2.6401    0.0000 N   0  0  0  0  0  4  0  0  0  0  0  0
    2.3250   -2.9520    0.0000 O   0  0  0  0  0  0  0  0  0  0  0  0
   -0.1459   -3.7548    0.0000 O   0  0  0  0  0  1  0  0  0  0  0  0
  1  2  1  0
  2  3  1  0
  3  4  2  0
  3  5  2  0
  3  6  1  0
  6  7  1  0
  7  8  1  0
  8  9  1  0
  9 10  1  0
  9 11  2  0
 11 12  1  0
 12 13  2  0
 13 14  1  0
 14 15  2  0
 14 16  1  0
 13  8  1  0
M  CHG  2  14   1  16  -1
M  END
$$$$
1592322
     RDKit          2D

 46 49  0  0  0  0  0  0  0  0999 V2000
    0.0000    4.8527    0.0000 C   0  0  0  0  0  0  0  0  0  0  0  0
    1.2990    5.6027    0.0000 C   0  0  0  0  0  0  0  0  0  0  0  0
    2.5981    4.8527    0.0000 S   0  0  0  0  0  0  0  0  0  0  0  0
    3.3481    6.1517    0.0000 O   0  0  0  0  0  0  0  0  0  0  0  0
    1.8481    3.5537    0.0000 O   0  0  0  0  0  0  0  0  0  0  0  0
    3.8971    4.1027    0.0000 O   0  0  0  0  0  0  0  0  0  0  0  0
    5.2500   -1.2990    0.0000 C   0  0  0  0  0  0  0  0  0  0  0  0
    3.7500   -1.2990    0.0000 O   0  0  0  0  0  0  0  0  0  0  0  0
    3.0000    0.0000    0.0000 C   0  0  0  0  0  0  0  0  0  0  0  0
    3.7500    1.2990    0.0000 O   0  0  0  0  0  0  0  0  0  0  0  0
    1.5000    0.0000    0.0000 C   0  0  0  0  0  0  0  0  0  0  0  0
    0.7500   -1.2990    0.0000 C   0  0  0  0  0  0  0  0  0  0  0  0
   -0.7500   -1.2990    0.0000 C   0  0  0  0  0  0  0  0  0  0  0  0
   -1.5000    0.0000    0.0000 C   0  0  0  0  0  0  0  0  0  0  0  0
   -2.9672    0.3119    0.0000 C   0  0  0  0  0  0  0  0  0  0  0  0
   -4.0819   -0.6918    0.0000 C   0  0  0  0  0  0  0  0  0  0  0  0
   -5.5085   -0.2283    0.0000 N   0  0  0  0  0  0  0  0  0  0  0  0
   -6.6232   -1.2320    0.0000 C   0  0  0  0  0  0  0  0  0  0  0  0
   -8.0498   -0.7685    0.0000 C   0  0  0  0  0  0  0  0  0  0  0  0
   -9.1645   -1.7722    0.0000 C   0  0  0  0  0  0  0  0  0  0  0  0
   -8.8527   -3.2394    0.0000 C   0  0  0  0  0  0  0  0  0  0  0  0
   -7.4261   -3.7029    0.0000 C   0  0  0  0  0  0  0  0  0  0  0  0
   -6.3114   -2.6992    0.0000 C   0  0  0  0  0  0  0  0  0  0  0  0
   -9.9674   -4.2431    0.0000 N   0  0  0  0  0  0  0  0  0  0  0  0
  -11.3940   -3.7796    0.0000 C   0  0  0  0  0  0  0  0  0  0  0  0
   -9.6555   -5.7103    0.0000 C   0  0  0  0  0  0  0  0  0  0  0  0
   -8.2289   -6.1738    0.0000 O   0  0  0  0  0  0  0  0  0  0  0  0
  -10.7702   -6.7140    0.0000 C   0  0  0  0  0  0  0  0  0  0  0  0
  -10.4584   -8.1812    0.0000 N   0  0  0  0  0  0  0  0  0  0  0  0
  -11.5731   -9.1849    0.0000 C   0  0  0  0  0  0  0  0  0  0  0  0
  -11.2612  -10.6521    0.0000 C   0  0  0  0  0  0  0  0  0  0  0  0
   -9.8346  -11.1157    0.0000 N   0  0  0  0  0  0  0  0  0  0  0  0
   -9.5228  -12.5829    0.0000 C   0  0  0  0  0  0  0  0  0  0  0  0
   -8.7199  -10.1120    0.0000 C   0  0  0  0  0  0  0  0  0  0  0  0
   -9.0318   -8.6448    0.0000 C   0  0  0  0  0  0  0  0  0  0  0  0
   -3.7701   -2.1590    0.0000 C   0  0  0  0  0  0  0  0  0  0  0  0
   -4.8848   -3.1627    0.0000 C   0  0  0  0  0  0  0  0  0  0  0  0
   -4.5729   -4.6300    0.0000 C   0  0  0  0  0  0  0  0  0  0  0  0
   -3.1463   -5.0935    0.0000 C   0  0  0  0  0  0  0  0  0  0  0  0
   -2.0316   -4.0898    0.0000 C   0  0  0  0  0  0  0  0  0  0  0  0
   -2.3435   -2.6226    0.0000 C   0  0  0  0  0  0  0  0  0  0  0  0
   -3.1240    1.8037    0.0000 C   0  0  0  0  0  0  0  0  0  0  0  0
   -4.4231    2.5537    0.0000 O   0  0  0  0  0  0  0  0  0  0  0  0
   -1.7537    2.4138    0.0000 N   0  0  0  0  0  0  0  0  0  0  0  0
   -0.7500    1.2990    0.0000 C   0  0  0  0  0  0  0  0  0  0  0  0
    0.7500    1.2990    0.0000 C   0  0  0  0  0  0  0  0  0  0  0  0
  1  2  1  0
  2  3  1  0
  3  4  2  0
  3  5  2  0
  3  6  1  0
  7  8  1  0
  8  9  1  0
  9 10  2  0
  9 11  1  0
 11 12  2  0
 12 13  1  0
 13 14  2  0
 14 15  1  0
 15 16  2  0
 16 17  1  0
 17 18  1  0
 18 19  2  0
 19 20  1  0
 20 21  2  0
 21 22  1  0
 22 23  2  0
 21 24  1  0
 24 25  1  0
 24 26  1  0
 26 27  2  0
 26 28  1  0
 28 29  1  0
 29 30  1  0
 30 31  1  0
 31 32  1  0
 32 33  1  0
 32 34  1  0
 34 35  1  0
 16 36  1  0
 36 37  2  0
 37 38  1  0
 38 39  2  0
 39 40  1  0
 40 41  2  0
 15 42  1  0
 42 43  2  0
 42 44  1  0
 44 45  1  0
 45 46  2  0
 46 11  1  0
 45 14  1  0
 23 18  1  0
 35 29  1  0
 41 36  1  0
M  END
$$$$
320810
     RDKit          2D

 27 30  0  0  0  0  0  0  0  0999 V2000
   -3.7500   -9.0933    0.0000 C   0  0  0  0  0  0  0  0  0  0  0  0
   -3.0000   -7.7942    0.0000 C   0  0  0  0  0  0  0  0  0  0  0  0
   -1.5000   -7.7942    0.0000 S   0  0  0  0  0  0  0  0  0  0  0  0
   -0.7500   -6.4952    0.0000 C   0  0  0  0  0  0  0  0  0  0  0  0
    0.7500   -6.4952    0.0000 C   0  0  0  0  0  0  0  0  0  0  0  0
    1.5000   -5.1962    0.0000 C   0  0  0  0  0  0  0  0  0  0  0  0
    0.7500   -3.8971    0.0000 C   0  0  0  0  0  0  0  0  0  0  0  0
    1.5000   -2.5981    0.0000 S   0  0  0  0  0  0  0  0  0  0  0  0
    0.7500   -1.2990    0.0000 C   0  0  0  0  0  0  0  0  0  0  0  0
    1.5000    0.0000    0.0000 C   0  0  0  0  0  0  0  0  0  0  0  0
    0.7500    1.2990    0.0000 C   0  0  0  0  0  0  0  0  0  0  0  0
   -0.7500    1.2990    0.0000 C   0  0  0  0  0  0  0  0  0  0  0  0
   -1.5000    0.0000    0.0000 C   0  0  0  0  0  0  0  0  0  0  0  0
   -0.7500   -1.2990    0.0000 C   0  0  0  0  0  0  0  0  0  0  0  0
   -1.5000   -2.5981    0.0000 N   0  0  0  0  0  0  0  0  0  0  0  0
   -3.0000   -2.5981    0.0000 C   0  0  0  0  0  0  0  0  0  0  0  0
   -3.7500   -1.2990    0.0000 C   0  0  0  0  0  0  0  0  0  0  0  0
   -5.2500   -1.2990    0.0000 C   0  0  0  0  0  0  0  0  0  0  0  0
   -6.0000    0.0000    0.0000 N   0  0  0  0  0  0  0  0  0  0  0  0
   -5.2500    1.2990    0.0000 C   0  0  0  0  0  0  0  0  0  0  0  0
   -6.0000    2.5981    0.0000 C   0  0  0  0  0  0  0  0  0  0  0  0
   -7.5000    2.5981    0.0000 N   0  0  0  0  0  0  0  0  0  0  0  0
   -8.2500    3.8971    0.0000 C   0  0  0  0  0  0  0  0  0  0  0  0
   -8.2500    1.2990    0.0000 C   0  0  0  0  0  0  0  0  0  0  0  0
   -7.5000    0.0000    0.0000 C   0  0  0  0  0  0  0  0  0  0  0  0
   -0.7500   -3.8971    0.0000 C   0  0  0  0  0  0  0  0  0  0  0  0
   -1.5000   -5.1962    0.0000 C   0  0  0  0  0  0  0  0  0  0  0  0
  1  2  1  0
  2  3  1  0
  3  4  1  0
  4  5  2  0
  5  6  1  0
  6  7  2  0
  7  8  1  0
  8  9  1  0
  9 10  2  0
 10 11  1  0
 11 12  2  0
 12 13  1  0
 13 14  2  0
 14 15  1  0
 15 16  1  0
 16 17  1  0
 17 18  1  0
 18 19  1  0
 19 20  1  0
 20 21  1  0
 21 22  1  0
 22 23  1  0
 22 24  1  0
 24 25  1  0
 15 26  1  0
 26 27  2  0
 27  4  1  0
 26  7  1  0
 14  9  1  0
 25 19  1  0
M  END
$$$$
674807
     RDKit          2D

 35 37  0  0  0  0  0  0  0  0999 V2000
   -3.7500   -9.0933    0.0000 C   0  0  0  0  0  0  0  0  0  0  0  0
   -3.0000   -7.7942    0.0000 C   0  0  0  0  0  0  0  0  0  0  0  0
   -1.5000   -7.7942    0.0000 S   0  0  0  0  0  0  0  0  0  0  0  0
   -0.7500   -6.4952    0.0000 C   0  0  0  0  0  0  0  0  0  0  0  0
    0.7500   -6.4952    0.0000 C   0  0  0  0  0  0  0  0  0  0  0  0
    1.5000   -5.1962    0.0000 C   0  0  0  0  0  0  0  0  0  0  0  0
    0.7500   -3.8971    0.0000 C   0  0  0  0  0  0  0  0  0  0  0  0
    1.5000   -2.5981    0.0000 S   0  0  0  0  0  0  0  0  0  0  0  0
    0.7500   -1.2990    0.0000 C   0  0  0  0  0  0  0  0  0  0  0  0
    1.5000    0.0000    0.0000 C   0  0  0  0  0  0  0  0  0  0  0  0
    0.7500    1.2990    0.0000 C   0  0  0  0  0  0  0  0  0  0  0  0
   -0.7500    1.2990    0.0000 C   0  0  0  0  0  0  0  0  0  0  0  0
   -1.5000    0.0000    0.0000 C   0  0  0  0  0  0  0  0  0  0  0  0
   -0.7500   -1.2990    0.0000 C   0  0  0  0  0  0  0  0  0  0  0  0
   -1.5000   -2.5981    0.0000 N   0  0  0  0  0  0  0  0  0  0  0  0
   -3.0000   -2.5981    0.0000 C   0  0  0  0  0  0  0  0  0  0  0  0
   -3.7500   -1.2990    0.0000 C   0  0  0  0  0  0  0  0  0  0  0  0
   -5.2500   -1.2990    0.0000 C   0  0  0  0  0  0  0  0  0  0  0  0
   -6.0000    0.0000    0.0000 N   0  0  0  0  0  0  0  0  0  0  0  0
   -5.2500    1.2990    0.0000 C   0  0  0  0  0  0  0  0  0  0  0  0
   -6.0000    2.5981    0.0000 C   0  0  0  0  0  0  0  0  0  0  0  0
   -7.5000    2.5981    0.0000 N   0  0  0  0  0  0  0  0  0  0  0  0
   -8.2500    3.8971    0.0000 C   0  0  0  0  0  0  0  0  0  0  0  0
   -8.2500    1.2990    0.0000 C   0  0  0  0  0  0  0  0  0  0  0  0
   -7.5000    0.0000    0.0000 C   0  0  0  0  0  0  0  0  0  0  0  0
   -0.7500   -3.8971    0.0000 C   0  0  0  0  0  0  0  0  0  0  0  0
   -1.5000   -5.1962    0.0000 C   0  0  0  0  0  0  0  0  0  0  0  0
    2.5000   -1.2990    0.0000 O   0  0  0  0  0  0  0  0  0  0  0  0
    4.0000   -1.2990    0.0000 C   0  0  0  0  0  0  0  0  0  0  0  0
    4.7500   -2.5981    0.0000 O   0  0  0  0  0  0  0  0  0  0  0  0
    4.7500    0.0000    0.0000 C   0  0  0  0  0  0  0  0  0  0  0  0
    6.2500    0.0000    0.0000 C   0  0  0  0  0  0  0  0  0  0  0  0
    7.0000   -1.2990    0.0000 C   0  0  0  0  0  0  0  0  0  0  0  0
    6.2500   -2.5981    0.0000 O   0  0  0  0  0  0  0  0  0  0  0  0
    8.5000   -1.2990    0.0000 O   0  0  0  0  0  0  0  0  0  0  0  0
  1  2  1  0
  2  3  1  0
  3  4  1  0
  4  5  2  0
  5  6  1  0
  6  7  2  0
  7  8  1  0
  8  9  1  0
  9 10  2  0
 10 11  1  0
 11 12  2  0
 12 13  1  0
 13 14  2  0
 14 15  1  0
 15 16  1  0
 16 17  1  0
 17 18  1  0
 18 19  1  0
 19 20  1  0
 20 21  1  0
 21 22  1  0
 22 23  1  0
 22 24  1  0
 24 25  1  0
 15 26  1  0
 26 27  2  0
 28 29  1  0
 29 30  2  0
 29 31  1  0
 31 32  2  0
 32 33  1  0
 33 34  2  0
 33 35  1  0
 27  4  1  0
 26  7  1  0
 14  9  1  0
 25 19  1  0
M  END
$$$$
138605
     RDKit          2D

 26 29  0  0  0  0  0  0  0  0999 V2000
   -6.0000    7.7942    0.0000 C   0  0  0  0  0  0  0  0  0  0  0  0
   -5.2500    6.4952    0.0000 C   0  0  0  0  0  0  0  0  0  0  0  0
   -6.0000    5.1962    0.0000 C   0  0  0  0  0  0  0  0  0  0  0  0
   -7.5000    5.1962    0.0000 C   0  0  0  0  0  0  0  0  0  0  0  0
   -8.2500    6.4952    0.0000 O   0  0  0  0  0  0  0  0  0  0  0  0
   -5.2500    3.8971    0.0000 N   0  0  0  0  0  0  0  0  0  0  0  0
   -6.0000    2.5981    0.0000 C   0  0  0  0  0  0  0  0  0  0  0  0
   -7.5000    2.5981    0.0000 O   0  0  0  0  0  0  0  0  0  0  0  0
   -5.2500    1.2990    0.0000 C   0  0  0  0  0  0  0  0  0  0  0  0
   -6.0000    0.0000    0.0000 C   0  0  0  0  0  0  0  0  0  0  0  0
   -5.2500   -1.2990    0.0000 N   0  0  0  0  0  0  0  0  0  0  0  0
   -6.0000   -2.5981    0.0000 C   0  0  0  0  0  0  0  0  0  0  0  0
   -3.7500   -1.2990    0.0000 C   0  0  0  0  0  0  0  0  0  0  0  0
   -3.0000   -2.5981    0.0000 C   0  0  0  0  0  0  0  0  0  0  0  0
   -1.5000   -2.5981    0.0000 C   0  0  0  0  0  0  0  0  0  0  0  0
   -0.3853   -3.6018    0.0000 C   0  0  0  0  0  0  0  0  0  0  0  0
    0.9138   -2.8518    0.0000 N   0  0  0  0  0  0  0  0  0  0  0  0
    2.2841   -3.4619    0.0000 C   0  0  0  0  0  0  0  0  0  0  0  0
    0.7500   -1.2990    0.0000 C   0  0  0  0  0  0  0  0  0  0  0  0
    1.5000    0.0000    0.0000 C   0  0  0  0  0  0  0  0  0  0  0  0
    0.7500    1.2990    0.0000 C   0  0  0  0  0  0  0  0  0  0  0  0
   -0.7500    1.2990    0.0000 C   0  0  0  0  0  0  0  0  0  0  0  0
   -1.5000    0.0000    0.0000 C   0  0  0  0  0  0  0  0  0  0  0  0
   -3.0000    0.0000    0.0000 C   0  0  0  0  0  0  0  0  0  0  0  0
   -3.7500    1.2990    0.0000 C   0  0  0  0  0  0  0  0  0  0  0  0
   -0.7500   -1.2990    0.0000 C   0  0  0  0  0  0  0  0  0  0  0  0
  1  2  1  0
  3  2  1  6
  3  4  1  0
  4  5  1  0
  3  6  1  0
  6  7  1  0
  7  8  2  0
  9  7  1  6
  9 10  1  0
 10 11  1  0
 11 12  1  0
 11 13  1  0
 13 14  1  1
 14 15  1  0
 15 16  2  0
 16 17  1  0
 17 18  1  0
 17 19  1  0
 19 20  2  0
 20 21  1  0
 21 22  2  0
 22 23  1  0
 23 24  1  0
 24 25  2  0
 23 26  2  0
 25  9  1  0
 24 13  1  0
 26 15  1  0
 26 19  1  0
M  END
$$$$
674889
     RDKit          2D

 34 36  0  0  0  0  0  0  0  0999 V2000
   -6.0000    7.7942    0.0000 C   0  0  0  0  0  0  0  0  0  0  0  0
   -5.2500    6.4952    0.0000 C   0  0  0  0  0  0  0  0  0  0  0  0
   -6.0000    5.1962    0.0000 C   0  0  0  0  0  0  0  0  0  0  0  0
   -7.5000    5.1962    0.0000 C   0  0  0  0  0  0  0  0  0  0  0  0
   -8.2500    6.4952    0.0000 O   0  0  0  0  0  0  0  0  0  0  0  0
   -5.2500    3.8971    0.0000 N   0  0  0  0  0  0  0  0  0  0  0  0
   -6.0000    2.5981    0.0000 C   0  0  0  0  0  0  0  0  0  0  0  0
   -7.5000    2.5981    0.0000 O   0  0  0  0  0  0  0  0  0  0  0  0
   -5.2500    1.2990    0.0000 C   0  0  0  0  0  0  0  0  0  0  0  0
   -6.0000    0.0000    0.0000 C   0  0  0  0  0  0  0  0  0  0  0  0
   -5.2500   -1.2990    0.0000 N   0  0  0  0  0  0  0  0  0  0  0  0
   -6.0000   -2.5981    0.0000 C   0  0  0  0  0  0  0  0  0  0  0  0
   -3.7500   -1.2990    0.0000 C   0  0  0  0  0  0  0  0  0  0  0  0
   -3.0000   -2.5981    0.0000 C   0  0  0  0  0  0  0  0  0  0  0  0
   -1.5000   -2.5981    0.0000 C   0  0  0  0  0  0  0  0  0  0  0  0
   -0.3853   -3.6018    0.0000 C   0  0  0  0  0  0  0  0  0  0  0  0
    0.9138   -2.8518    0.0000 N   0  0  0  0  0  0  0  0  0  0  0  0
    2.2841   -3.4619    0.0000 C   0  0  0  0  0  0  0  0  0  0  0  0
    0.7500   -1.2990    0.0000 C   0  0  0  0  0  0  0  0  0  0  0  0
    1.5000    0.0000    0.0000 C   0  0  0  0  0  0  0  0  0  0  0  0
    0.7500    1.2990    0.0000 C   0  0  0  0  0  0  0  0  0  0  0  0
   -0.7500    1.2990    0.0000 C   0  0  0  0  0  0  0  0  0  0  0  0
   -1.5000    0.0000    0.0000 C   0  0  0  0  0  0  0  0  0  0  0  0
   -3.0000    0.0000    0.0000 C   0  0  0  0  0  0  0  0  0  0  0  0
   -3.7500    1.2990    0.0000 C   0  0  0  0  0  0  0  0  0  0  0  0
   -0.7500   -1.2990    0.0000 C   0  0  0  0  0  0  0  0  0  0  0  0
    3.2841   -1.2990    0.0000 O   0  0  0  0  0  0  0  0  0  0  0  0
    4.7841   -1.2990    0.0000 C   0  0  0  0  0  0  0  0  0  0  0  0
    5.5341   -2.5981    0.0000 O   0  0  0  0  0  0  0  0  0  0  0  0
    5.5341    0.0000    0.0000 C   0  0  0  0  0  0  0  0  0  0  0  0
    7.0341    0.0000    0.0000 C   0  0  0  0  0  0  0  0  0  0  0  0
    7.7841   -1.2990    0.0000 C   0  0  0  0  0  0  0  0  0  0  0  0
    7.0341   -2.5981    0.0000 O   0  0  0  0  0  0  0  0  0  0  0  0
    9.2841   -1.2990    0.0000 O   0  0  0  0  0  0  0  0  0  0  0  0
  1  2  1  0
  3  2  1  6
  3  4  1  0
  4  5  1  0
  3  6  1  0
  6  7  1  0
  7  8  2  0
  9  7  1  6
  9 10  1  0
 10 11  1  0
 11 12  1  0
 11 13  1  0
 13 14  1  1
 14 15  1  0
 15 16  2  0
 16 17  1  0
 17 18  1  0
 17 19  1  0
 19 20  2  0
 20 21  1  0
 21 22  2  0
 22 23  1  0
 23 24  1  0
 24 25  2  0
 23 26  2  0
 27 28  1  0
 28 29  2  0
 28 30  1  0
 30 31  2  0
 31 32  1  0
 32 33  2  0
 32 34  1  0
 25  9  1  0
 24 13  1  0
 26 15  1  0
 26 19  1  0
M  END
$$$$
675307
     RDKit          2D

 25 28  0  0  0  0  0  0  0  0999 V2000
   -6.0000    7.7942    0.0000 C   0  0  0  0  0  0  0  0  0  0  0  0
   -5.2500    6.4952    0.0000 C   0  0  0  0  0  0  0  0  0  0  0  0
   -6.0000    5.1962    0.0000 C   0  0  0  0  0  0  0  0  0  0  0  0
   -7.5000    5.1962    0.0000 C   0  0  0  0  0  0  0  0  0  0  0  0
   -8.2500    6.4952    0.0000 O   0  0  0  0  0  0  0  0  0  0  0  0
   -5.2500    3.8971    0.0000 N   0  0  0  0  0  0  0  0  0  0  0  0
   -6.0000    2.5981    0.0000 C   0  0  0  0  0  0  0  0  0  0  0  0
   -7.5000    2.5981    0.0000 O   0  0  0  0  0  0  0  0  0  0  0  0
   -5.2500    1.2990    0.0000 C   0  0  0  0  0  0  0  0  0  0  0  0
   -6.0000    0.0000    0.0000 C   0  0  0  0  0  0  0  0  0  0  0  0
   -5.2500   -1.2990    0.0000 N   0  0  0  0  0  0  0  0  0  0  0  0
   -6.0000   -2.5981    0.0000 C   0  0  0  0  0  0  0  0  0  0  0  0
   -3.7500   -1.2990    0.0000 C   0  0  0  0  0  0  0  0  0  0  0  0
   -3.0000   -2.5981    0.0000 C   0  0  0  0  0  0  0  0  0  0  0  0
   -1.5000   -2.5981    0.0000 C   0  0  0  0  0  0  0  0  0  0  0  0
   -0.3853   -3.6018    0.0000 C   0  0  0  0  0  0  0  0  0  0  0  0
    0.9138   -2.8518    0.0000 N   0  0  0  0  0  0  0  0  0  0  0  0
    0.7500   -1.2990    0.0000 C   0  0  0  0  0  0  0  0  0  0  0  0
    1.5000    0.0000    0.0000 C   0  0  0  0  0  0  0  0  0  0  0  0
    0.7500    1.2990    0.0000 C   0  0  0  0  0  0  0  0  0  0  0  0
   -0.7500    1.2990    0.0000 C   0  0  0  0  0  0  0  0  0  0  0  0
   -1.5000    0.0000    0.0000 C   0  0  0  0  0  0  0  0  0  0  0  0
   -3.0000    0.0000    0.0000 C   0  0  0  0  0  0  0  0  0  0  0  0
   -3.7500    1.2990    0.0000 C   0  0  0  0  0  0  0  0  0  0  0  0
   -0.7500   -1.2990    0.0000 C   0  0  0  0  0  0  0  0  0  0  0  0
  1  2  1  0
  3  2  1  6
  3  4  1  0
  4  5  1  0
  3  6  1  0
  6  7  1  0
  7  8  2  0
  9  7  1  6
  9 10  1  0
 10 11  1  0
 11 12  1  0
 11 13  1  0
 13 14  1  1
 14 15  1  0
 15 16  2  0
 16 17  1  0
 17 18  1  0
 18 19  2  0
 19 20  1  0
 20 21  2  0
 21 22  1  0
 22 23  1  0
 23 24  2  0
 22 25  2  0
 24  9  1  0
 23 13  1  0
 25 15  1  0
 25 18  1  0
M  END
$$$$
674794
     RDKit          2D

 33 35  0  0  0  0  0  0  0  0999 V2000
   -6.0000    7.7942    0.0000 C   0  0  0  0  0  0  0  0  0  0  0  0
   -5.2500    6.4952    0.0000 C   0  0  0  0  0  0  0  0  0  0  0  0
   -6.0000    5.1962    0.0000 C   0  0  0  0  0  0  0  0  0  0  0  0
   -7.5000    5.1962    0.0000 C   0  0  0  0  0  0  0  0  0  0  0  0
   -8.2500    6.4952    0.0000 O   0  0  0  0  0  0  0  0  0  0  0  0
   -5.2500    3.8971    0.0000 N   0  0  0  0  0  0  0  0  0  0  0  0
   -6.0000    2.5981    0.0000 C   0  0  0  0  0  0  0  0  0  0  0  0
   -7.5000    2.5981    0.0000 O   0  0  0  0  0  0  0  0  0  0  0  0
   -5.2500    1.2990    0.0000 C   0  0  0  0  0  0  0  0  0  0  0  0
   -6.0000    0.0000    0.0000 C   0  0  0  0  0  0  0  0  0  0  0  0
   -5.2500   -1.2990    0.0000 N   0  0  0  0  0  0  0  0  0  0  0  0
   -6.0000   -2.5981    0.0000 C   0  0  0  0  0  0  0  0  0  0  0  0
   -3.7500   -1.2990    0.0000 C   0  0  0  0  0  0  0  0  0  0  0  0
   -3.0000   -2.5981    0.0000 C   0  0  0  0  0  0  0  0  0  0  0  0
   -1.5000   -2.5981    0.0000 C   0  0  0  0  0  0  0  0  0  0  0  0
   -0.3853   -3.6018    0.0000 C   0  0  0  0  0  0  0  0  0  0  0  0
    0.9138   -2.8518    0.0000 N   0  0  0  0  0  0  0  0  0  0  0  0
    0.7500   -1.2990    0.0000 C   0  0  0  0  0  0  0  0  0  0  0  0
    1.5000    0.0000    0.0000 C   0  0  0  0  0  0  0  0  0  0  0  0
    0.7500    1.2990    0.0000 C   0  0  0  0  0  0  0  0  0  0  0  0
   -0.7500    1.2990    0.0000 C   0  0  0  0  0  0  0  0  0  0  0  0
   -1.5000    0.0000    0.0000 C   0  0  0  0  0  0  0  0  0  0  0  0
   -3.0000    0.0000    0.0000 C   0  0  0  0  0  0  0  0  0  0  0  0
   -3.7500    1.2990    0.0000 C   0  0  0  0  0  0  0  0  0  0  0  0
   -0.7500   -1.2990    0.0000 C   0  0  0  0  0  0  0  0  0  0  0  0
    2.5000   -1.2990    0.0000 O   0  0  0  0  0  0  0  0  0  0  0  0
    4.0000   -1.2990    0.0000 C   0  0  0  0  0  0  0  0  0  0  0  0
    4.7500   -2.5981    0.0000 O   0  0  0  0  0  0  0  0  0  0  0  0
    4.7500    0.0000    0.0000 C   0  0  0  0  0  0  0  0  0  0  0  0
    6.2500    0.0000    0.0000 C   0  0  0  0  0  0  0  0  0  0  0  0
    7.0000   -1.2990    0.0000 C   0  0  0  0  0  0  0  0  0  0  0  0
    6.2500   -2.5981    0.0000 O   0  0  0  0  0  0  0  0  0  0  0  0
    8.5000   -1.2990    0.0000 O   0  0  0  0  0  0  0  0  0  0  0  0
  1  2  1  0
  3  2  1  6
  3  4  1  0
  4  5  1  0
  3  6  1  0
  6  7  1  0
  7  8  2  0
  9  7  1  6
  9 10  1  0
 10 11  1  0
 11 12  1  0
 11 13  1  0
 13 14  1  1
 14 15  1  0
 15 16  2  0
 16 17  1  0
 17 18  1  0
 18 19  2  0
 19 20  1  0
 20 21  2  0
 21 22  1  0
 22 23  1  0
 23 24  2  0
 22 25  2  0
 26 27  1  0
 27 28  2  0
 27 29  1  0
 29 30  2  0
 30 31  1  0
 31 32  2  0
 31 33  1  0
 24  9  1  0
 23 13  1  0
 25 15  1  0
 25 18  1  0
M  END
$$$$
67617
     RDKit          2D

 14 13  0  0  0  0  0  0  0  0999 V2000
    0.0000    0.0000    0.0000 C   0  0  0  0  0  0  0  0  0  0  0  0
    1.2990    0.7500    0.0000 C   0  0  0  0  0  0  0  0  0  0  0  0
    2.5981   -0.0000    0.0000 C   0  0  0  0  0  0  0  0  0  0  0  0
    3.8971    0.7500    0.0000 C   0  0  0  0  0  0  0  0  0  0  0  0
    5.1962   -0.0000    0.0000 O   0  0  0  0  0  0  0  0  0  0  0  0
    2.5981   -1.5000    0.0000 N   0  0  0  0  0  0  0  0  0  0  0  0
    3.8971   -2.2500    0.0000 C   0  0  0  0  0  0  0  0  0  0  0  0
    3.8971   -3.7500    0.0000 C   0  0  0  0  0  0  0  0  0  0  0  0
    5.1962   -4.5000    0.0000 N   0  0  0  0  0  0  0  0  0  0  0  0
    5.1962   -6.0000    0.0000 C   0  0  0  0  0  0  0  0  0  0  0  0
    6.4952   -6.7500    0.0000 C   0  0  0  0  0  0  0  0  0  0  0  0
    6.4952   -8.2500    0.0000 C   0  0  0  0  0  0  0  0  0  0  0  0
    3.8971   -6.7500    0.0000 C   0  0  0  0  0  0  0  0  0  0  0  0
    3.8971   -8.2500    0.0000 O   0  0  0  0  0  0  0  0  0  0  0  0
  1  2  1  0
  3  2  1  1
  3  4  1  0
  4  5  1  0
  3  6  1  0
  6  7  1  0
  7  8  1  0
  8  9  1  0
  9 10  1  0
 10 11  1  1
 11 12  1  0
 10 13  1  0
 13 14  1  0
M  END
$$$$
334337
     RDKit          2D

 51 57  0  0  0  0  0  0  0  0999 V2000
    0.3207   -8.5658    0.0000 C   0  0  0  0  0  0  0  0  0  0  0  0
    0.4775   -7.0740    0.0000 C   0  0  0  0  0  0  0  0  0  0  0  0
    1.8478   -6.4639    0.0000 C   0  0  0  0  0  0  0  0  0  0  0  0
    3.0613   -7.3456    0.0000 C   0  0  0  0  0  0  0  0  0  0  0  0
    2.9046   -8.8373    0.0000 C   0  0  0  0  0  0  0  0  0  0  0  0
    4.4317   -6.7354    0.0000 O   0  0  0  0  0  0  0  0  0  0  0  0
    2.0046   -4.9721    0.0000 N   0  0  0  0  0  0  0  0  0  0  0  0
    3.3037   -4.2221    0.0000 N   0  0  0  0  0  0  0  0  0  0  0  0
    2.9918   -2.7549    0.0000 C   0  0  0  0  0  0  0  0  0  0  0  0
    1.5000   -2.5981    0.0000 N   0  0  0  0  0  0  0  0  0  0  0  0
    0.8899   -3.9684    0.0000 C   0  0  0  0  0  0  0  0  0  0  0  0
   -0.5773   -4.2803    0.0000 O   0  0  0  0  0  0  0  0  0  0  0  0
    0.7500   -1.2990    0.0000 C   0  0  0  0  0  0  0  0  0  0  0  0
    1.5000    0.0000    0.0000 C   0  0  0  0  0  0  0  0  0  0  0  0
    0.7500    1.2990    0.0000 C   0  0  0  0  0  0  0  0  0  0  0  0
   -0.7500    1.2990    0.0000 C   0  0  0  0  0  0  0  0  0  0  0  0
   -1.5000    0.0000    0.0000 C   0  0  0  0  0  0  0  0  0  0  0  0
   -0.7500   -1.2990    0.0000 C   0  0  0  0  0  0  0  0  0  0  0  0
   -1.5000    2.5981    0.0000 N   0  0  0  0  0  0  0  0  0  0  0  0
   -0.7500    3.8971    0.0000 C   0  0  0  0  0  0  0  0  0  0  0  0
   -1.5000    5.1962    0.0000 C   0  0  0  0  0  0  0  0  0  0  0  0
   -3.0000    5.1962    0.0000 N   0  0  0  0  0  0  0  0  0  0  0  0
   -3.7500    3.8971    0.0000 C   0  0  0  0  0  0  0  0  0  0  0  0
   -3.0000    2.5981    0.0000 C   0  0  0  0  0  0  0  0  0  0  0  0
   -3.7500    6.4952    0.0000 C   0  0  0  0  0  0  0  0  0  0  0  0
   -3.0000    7.7942    0.0000 C   0  0  0  0  0  0  0  0  0  0  0  0
   -3.7500    9.0933    0.0000 C   0  0  0  0  0  0  0  0  0  0  0  0
   -5.2500    9.0933    0.0000 C   0  0  0  0  0  0  0  0  0  0  0  0
   -6.0000   10.3923    0.0000 O   0  0  0  0  0  0  0  0  0  0  0  0
   -5.2500   11.6913    0.0000 C   0  0  0  0  0  0  0  0  0  0  0  0
   -6.0000   12.9904    0.0000 C   0  0  0  0  0  0  0  0  0  0  0  0
   -7.4918   13.1472    0.0000 C   0  0  0  0  0  0  0  0  0  0  0  0
   -7.8037   14.6144    0.0000 O   0  0  0  0  0  0  0  0  0  0  0  0
   -6.5046   15.3644    0.0000 C   0  0  0  0  0  0  0  0  0  0  0  0
   -5.3899   16.3681    0.0000 C   0  0  0  0  0  0  0  0  0  0  0  0
   -3.9633   15.9046    0.0000 N   0  0  0  0  0  0  0  0  0  0  0  0
   -2.7498   16.7862    0.0000 C   0  0  0  0  0  0  0  0  0  0  0  0
   -1.5363   15.9046    0.0000 N   0  0  0  0  0  0  0  0  0  0  0  0
   -1.9998   14.4780    0.0000 C   0  0  0  0  0  0  0  0  0  0  0  0
   -3.4998   14.4780    0.0000 N   0  0  0  0  0  0  0  0  0  0  0  0
   -5.3899   14.3607    0.0000 C   0  0  0  0  0  0  0  0  0  0  0  0
   -7.3863   16.5779    0.0000 C   0  0  0  0  0  0  0  0  0  0  0  0
   -6.7762   17.9482    0.0000 C   0  0  0  0  0  0  0  0  0  0  0  0
   -7.6579   19.1618    0.0000 C   0  0  0  0  0  0  0  0  0  0  0  0
   -9.1496   19.0050    0.0000 C   0  0  0  0  0  0  0  0  0  0  0  0
  -10.0313   20.2185    0.0000 F   0  0  0  0  0  0  0  0  0  0  0  0
   -9.7598   17.6347    0.0000 C   0  0  0  0  0  0  0  0  0  0  0  0
   -8.8781   16.4211    0.0000 C   0  0  0  0  0  0  0  0  0  0  0  0
   -9.4882   15.0508    0.0000 F   0  0  0  0  0  0  0  0  0  0  0  0
   -6.0000    7.7942    0.0000 C   0  0  0  0  0  0  0  0  0  0  0  0
   -5.2500    6.4952    0.0000 C   0  0  0  0  0  0  0  0  0  0  0  0
  1  2  1  0
  3  2  1  6
  3  4  1  0
  4  5  1  1
  4  6  1  0
  3  7  1  0
  7  8  1  0
  8  9  2  0
  9 10  1  0
 10 11  1  0
 11 12  2  0
 10 13  1  0
 13 14  2  0
 14 15  1  0
 15 16  2  0
 16 17  1  0
 17 18  2  0
 16 19  1  0
 19 20  1  0
 20 21  1  0
 21 22  1  0
 22 23  1  0
 23 24  1  0
 22 25  1  0
 25 26  2  0
 26 27  1  0
 27 28  2  0
 28 29  1  0
 29 30  1  0
 31 30  1  6
 31 32  1  0
 32 33  1  0
 33 34  1  0
 34 35  1  6
 35 36  1  0
 36 37  1  0
 37 38  2  0
 38 39  1  0
 39 40  2  0
 34 41  1  0
 34 42  1  0
 42 43  2  0
 43 44  1  0
 44 45  2  0
 45 46  1  0
 45 47  1  0
 47 48  2  0
 48 49  1  0
 28 50  1  0
 50 51  2  0
 11  7  1  0
 18 13  1  0
 24 19  1  0
 51 25  1  0
 41 31  1  0
 40 36  1  0
 48 42  1  0
M  END
$$$$
7501
     RDKit          2D

 31 35  0  0  0  0  0  0  0  0999 V2000
    4.0586    0.4512    0.0000 C   0  0  0  0  0  0  0  0  0  0  0  0
    2.6491    0.9642    0.0000 C   0  0  0  0  0  0  0  0  0  0  0  0
    1.5000    0.0000    0.0000 C   0  0  0  0  0  0  0  0  0  0  0  0
    2.6491   -0.9642    0.0000 O   0  0  0  0  0  0  0  0  0  0  0  0
    0.7500   -1.2990    0.0000 C   0  0  0  0  0  0  0  0  0  0  0  0
    1.5000   -2.5981    0.0000 O   0  0  0  0  0  0  0  0  0  0  0  0
   -0.7500   -1.2990    0.0000 O   0  0  0  0  0  0  0  0  0  0  0  0
   -1.5000    0.0000    0.0000 C   0  0  0  0  0  0  0  0  0  0  0  0
   -0.7500    1.2990    0.0000 C   0  0  0  0  0  0  0  0  0  0  0  0
    0.7500    1.2990    0.0000 C   0  0  0  0  0  0  0  0  0  0  0  0
    1.5000    2.5981    0.0000 C   0  0  0  0  0  0  0  0  0  0  0  0
    0.7500    3.8971    0.0000 C   0  0  0  0  0  0  0  0  0  0  0  0
   -0.7500    3.8971    0.0000 N   0  0  0  0  0  0  0  0  0  0  0  0
   -1.2135    5.3237    0.0000 C   0  0  0  0  0  0  0  0  0  0  0  0
    0.0000    6.2054    0.0000 C   0  0  0  0  0  0  0  0  0  0  0  0
    0.1568    7.6972    0.0000 C   0  0  0  0  0  0  0  0  0  0  0  0
    1.5271    8.3073    0.0000 C   0  0  0  0  0  0  0  0  0  0  0  0
    1.6839    9.7990    0.0000 C   0  0  0  0  0  0  0  0  0  0  0  0
    0.4704   10.6807    0.0000 C   0  0  0  0  0  0  0  0  0  0  0  0
    0.6272   12.1725    0.0000 N   0  0  0  0  0  0  0  0  0  0  0  0
   -0.5864   13.0542    0.0000 C   0  0  0  0  0  0  0  0  0  0  0  0
    1.9975   12.7826    0.0000 C   0  0  0  0  0  0  0  0  0  0  0  0
    3.0542   10.4092    0.0000 C   0  0  0  0  0  0  0  0  0  0  0  0
    3.2110   11.9009    0.0000 O   0  0  0  0  0  0  0  0  0  0  0  0
    4.2677    9.5275    0.0000 C   0  0  0  0  0  0  0  0  0  0  0  0
    4.1110    8.0357    0.0000 C   0  0  0  0  0  0  0  0  0  0  0  0
    2.7406    7.4256    0.0000 C   0  0  0  0  0  0  0  0  0  0  0  0
    2.5838    5.9338    0.0000 N   0  0  0  0  0  0  0  0  0  0  0  0
    1.2135    5.3237    0.0000 C   0  0  0  0  0  0  0  0  0  0  0  0
   -1.5000    2.5981    0.0000 C   0  0  0  0  0  0  0  0  0  0  0  0
   -3.0000    2.5981    0.0000 O   0  0  0  0  0  0  0  0  0  0  0  0
  1  2  1  0
  2  3  1  0
  3  4  1  6
  3  5  1  0
  5  6  2  0
  5  7  1  0
  7  8  1  0
  8  9  1  0
  9 10  2  0
 10 11  1  0
 11 12  2  0
 12 13  1  0
 13 14  1  0
 14 15  1  0
 15 16  2  0
 16 17  1  0
 17 18  2  0
 18 19  1  0
 19 20  1  0
 20 21  1  0
 20 22  1  0
 18 23  1  0
 23 24  1  0
 23 25  2  0
 25 26  1  0
 26 27  2  0
 27 28  1  0
 28 29  2  0
 13 30  1  0
 30 31  2  0
 10  3  1  0
 30  9  1  0
 29 12  1  0
 29 15  1  0
 27 17  1  0
M  END
$$$$
9495
     RDKit          2D

 29 31  0  0  0  0  0  0  0  0999 V2000
    7.5000   -0.0000    0.0000 C   0  0  0  0  0  0  0  0  0  0  0  0
    6.0000    0.0000    0.0000 C   0  0  0  0  0  0  0  0  0  0  0  0
    5.2500   -1.2990    0.0000 C   0  0  0  0  0  0  0  0  0  0  0  0
    6.0000   -2.5981    0.0000 C   0  0  0  0  0  0  0  0  0  0  0  0
    3.7500   -1.2990    0.0000 C   0  0  0  0  0  0  0  0  0  0  0  0
    3.0000   -2.5981    0.0000 O   0  0  0  0  0  0  0  0  0  0  0  0
    3.0000    0.0000    0.0000 O   0  0  0  0  0  0  0  0  0  0  0  0
    1.5000    0.0000    0.0000 C   0  0  0  0  0  0  0  0  0  0  0  0
    0.7500   -1.2990    0.0000 C   0  0  0  0  0  0  0  0  0  0  0  0
   -0.7500   -1.2990    0.0000 C   0  0  0  0  0  0  0  0  0  0  0  0
   -1.5000   -2.5981    0.0000 C   0  0  0  0  0  0  0  0  0  0  0  0
   -1.5000    0.0000    0.0000 C   0  0  0  0  0  0  0  0  0  0  0  0
   -0.7500    1.2990    0.0000 C   0  0  0  0  0  0  0  0  0  0  0  0
   -1.5000    2.5981    0.0000 C   0  0  0  0  0  0  0  0  0  0  0  0
   -0.7500    3.8971    0.0000 C   0  0  0  0  0  0  0  0  0  0  0  0
    0.7500    3.8971    0.0000 C   0  0  0  0  0  0  0  0  0  0  0  0
    1.5000    5.1962    0.0000 C   0  0  0  0  0  0  0  0  0  0  0  0
    1.5000    2.5981    0.0000 C   0  0  0  0  0  0  0  0  0  0  0  0
    3.0000    2.5981    0.0000 C   0  0  0  0  0  0  0  0  0  0  0  0
    3.7500    3.8971    0.0000 C   0  0  0  0  0  0  0  0  0  0  0  0
    5.2500    3.8971    0.0000 C   0  0  0  0  0  0  0  0  0  0  0  0
    6.0000    5.1962    0.0000 C   0  0  0  0  0  0  0  0  0  0  0  0
    7.5000    5.1962    0.0000 C   0  0  0  0  0  0  0  0  0  0  0  0
    8.2500    6.4952    0.0000 O   0  0  0  0  0  0  0  0  0  0  0  0
    8.2500    3.8971    0.0000 C   0  0  0  0  0  0  0  0  0  0  0  0
    7.5000    2.5981    0.0000 C   0  0  0  0  0  0  0  0  0  0  0  0
    8.2500    1.2990    0.0000 O   0  0  0  0  0  0  0  0  0  0  0  0
    6.0000    2.5981    0.0000 O   0  0  0  0  0  0  0  0  0  0  0  0
    0.7500    1.2990    0.0000 C   0  0  0  0  0  0  0  0  0  0  0  0
  1  2  1  0
  2  3  1  0
  3  4  1  6
  3  5  1  0
  5  6  2  0
  5  7  1  0
  8  7  1  1
  8  9  1  0
  9 10  1  0
 10 11  1  1
 10 12  1  0
 12 13  2  0
 13 14  1  0
 14 15  2  0
 15 16  1  0
 16 17  1  6
 16 18  1  0
 18 19  1  6
 19 20  1  0
 21 20  1  6
 21 22  1  0
 22 23  1  0
 23 24  1  1
 23 25  1  0
 25 26  1  0
 26 27  2  0
 26 28  1  0
 18 29  1  0
 29  8  1  0
 29 13  1  1
 28 21  1  0
M  END
$$$$
178796
     RDKit          2D

 30 31  0  0  0  0  0  0  0  0999 V2000
    7.5000   -0.0000    0.0000 C   0  0  0  0  0  0  0  0  0  0  0  0
    6.0000    0.0000    0.0000 C   0  0  0  0  0  0  0  0  0  0  0  0
    5.2500   -1.2990    0.0000 C   0  0  0  0  0  0  0  0  0  0  0  0
    6.0000   -2.5981    0.0000 C   0  0  0  0  0  0  0  0  0  0  0  0
    3.7500   -1.2990    0.0000 C   0  0  0  0  0  0  0  0  0  0  0  0
    3.0000   -2.5981    0.0000 O   0  0  0  0  0  0  0  0  0  0  0  0
    3.0000    0.0000    0.0000 O   0  0  0  0  0  0  0  0  0  0  0  0
    1.5000    0.0000    0.0000 C   0  0  0  0  0  0  0  0  0  0  0  0
    0.7500   -1.2990    0.0000 C   0  0  0  0  0  0  0  0  0  0  0  0
   -0.7500   -1.2990    0.0000 C   0  0  0  0  0  0  0  0  0  0  0  0
   -1.5000   -2.5981    0.0000 O   0  0  0  0  0  0  0  0  0  0  0  0
   -1.5000    0.0000    0.0000 C   0  0  0  0  0  0  0  0  0  0  0  0
   -0.7500    1.2990    0.0000 C   0  0  0  0  0  0  0  0  0  0  0  0
   -1.5000    2.5981    0.0000 C   0  0  0  0  0  0  0  0  0  0  0  0
   -0.7500    3.8971    0.0000 C   0  0  0  0  0  0  0  0  0  0  0  0
    0.7500    3.8971    0.0000 C   0  0  0  0  0  0  0  0  0  0  0  0
    1.5000    5.1962    0.0000 C   0  0  0  0  0  0  0  0  0  0  0  0
    1.5000    2.5981    0.0000 C   0  0  0  0  0  0  0  0  0  0  0  0
    3.0000    2.5981    0.0000 C   0  0  0  0  0  0  0  0  0  0  0  0
    3.7500    3.8971    0.0000 C   0  0  0  0  0  0  0  0  0  0  0  0
    5.2500    3.8971    0.0000 C   0  0  0  0  0  0  0  0  0  0  0  0
    6.0000    5.1962    0.0000 O   0  0  0  0  0  0  0  0  0  0  0  0
    6.0000    2.5981    0.0000 C   0  0  0  0  0  0  0  0  0  0  0  0
    7.5000    2.5981    0.0000 C   0  0  0  0  0  0  0  0  0  0  0  0
    8.2500    3.8971    0.0000 O   0  0  0  0  0  0  0  0  0  0  0  0
    8.2500    1.2990    0.0000 C   0  0  0  0  0  0  0  0  0  0  0  0
    9.7500    1.2990    0.0000 C   0  0  0  0  0  0  0  0  0  0  0  0
   10.5000    2.5981    0.0000 O   0  0  0  0  0  0  0  0  0  0  0  0
   10.5000    0.0000    0.0000 O   0  0  0  0  0  0  0  0  0  0  0  0
    0.7500    1.2990    0.0000 C   0  0  0  0  0  0  0  0  0  0  0  0
  1  2  1  0
  2  3  1  0
  3  4  1  6
  3  5  1  0
  5  6  2  0
  5  7  1  0
  8  7  1  1
  8  9  1  0
  9 10  1  0
 10 11  1  6
 10 12  1  0
 12 13  2  0
 13 14  1  0
 14 15  2  0
 15 16  1  0
 16 17  1  6
 16 18  1  0
 18 19  1  6
 19 20  1  0
 20 21  1  0
 21 22  1  1
 21 23  1  0
 23 24  1  0
 24 25  1  1
 24 26  1  0
 26 27  1  0
 27 28  2  0
 27 29  1  0
 18 30  1  0
 30  8  1  0
 30 13  1  1
M  END
$$$$
252155
     RDKit          2D

 12 12  0  0  0  0  0  0  0  0999 V2000
    5.0260    1.2990    0.0000 C   0  0  0  0  0  0  0  0  0  0  0  0
    3.5260    1.2990    0.0000 C   0  0  0  0  0  0  0  0  0  0  0  0
    2.7760    0.0000    0.0000 C   0  0  0  0  0  0  0  0  0  0  0  0
    1.2760    0.0000    0.0000 N   0  0  0  0  0  0  0  0  0  0  0  0
    0.3943    1.2135    0.0000 C   0  0  0  0  0  0  0  0  0  0  0  0
   -1.0323    0.7500    0.0000 C   0  0  0  0  0  0  0  0  0  0  0  0
   -1.0323   -0.7500    0.0000 C   0  0  0  0  0  0  0  0  0  0  0  0
    0.3943   -1.2135    0.0000 C   0  0  0  0  0  0  0  0  0  0  0  0
    0.8578   -2.6401    0.0000 O   0  0  0  0  0  0  0  0  0  0  0  0
    3.5260   -1.2990    0.0000 C   0  0  0  0  0  0  0  0  0  0  0  0
    2.7760   -2.5981    0.0000 O   0  0  0  0  0  0  0  0  0  0  0  0
    5.0260   -1.2990    0.0000 N   0  0  0  0  0  0  0  0  0  0  0  0
  1  2  1  0
  3  2  1  1
  3  4  1  0
  4  5  1  0
  5  6  1  0
  6  7  1  0
  7  8  1  0
  8  9  2  0
  3 10  1  0
 10 11  2  0
 10 12  1  0
  8  4  1  0
M  END
$$$$
1448219
     RDKit          2D

 31 35  0  0  0  0  0  0  0  0999 V2000
    1.5000   -7.7942    0.0000 C   0  0  0  0  0  0  0  0  0  0  0  0
    0.7500   -6.4952    0.0000 C   0  0  0  0  0  0  0  0  0  0  0  0
    1.5000   -5.1962    0.0000 C   0  0  0  0  0  0  0  0  0  0  0  0
    3.0000   -5.1962    0.0000 N   0  0  0  0  0  0  0  0  0  0  0  0
    3.7500   -6.4952    0.0000 C   0  0  0  0  0  0  0  0  0  0  0  0
    3.0000   -7.7942    0.0000 N   0  0  0  0  0  0  0  0  0  0  0  0
    3.7500   -9.0933    0.0000 C   0  0  0  0  0  0  0  0  0  0  0  0
    5.2500   -9.0933    0.0000 N   0  0  0  0  0  0  0  0  0  0  0  0
    6.0000   -7.7942    0.0000 C   0  0  0  0  0  0  0  0  0  0  0  0
    7.4672   -7.4824    0.0000 N   0  0  0  0  0  0  0  0  0  0  0  0
    7.6240   -5.9906    0.0000 C   0  0  0  0  0  0  0  0  0  0  0  0
    6.2537   -5.3805    0.0000 N   0  0  0  0  0  0  0  0  0  0  0  0
    5.2500   -6.4952    0.0000 C   0  0  0  0  0  0  0  0  0  0  0  0
    0.7500   -3.8971    0.0000 C   0  0  0  0  0  0  0  0  0  0  0  0
    1.5000   -2.5981    0.0000 N   0  0  0  0  0  0  0  0  0  0  0  0
    0.7500   -1.2990    0.0000 C   0  0  0  0  0  0  0  0  0  0  0  0
    1.5000    0.0000    0.0000 C   0  0  0  0  0  0  0  0  0  0  0  0
    0.7500    1.2990    0.0000 C   0  0  0  0  0  0  0  0  0  0  0  0
   -0.7500    1.2990    0.0000 C   0  0  0  0  0  0  0  0  0  0  0  0
   -1.5000    0.0000    0.0000 C   0  0  0  0  0  0  0  0  0  0  0  0
   -3.0000    0.0000    0.0000 F   0  0  0  0  0  0  0  0  0  0  0  0
   -0.7500   -1.2990    0.0000 C   0  0  0  0  0  0  0  0  0  0  0  0
   -1.5000   -2.5981    0.0000 C   0  0  0  0  0  0  0  0  0  0  0  0
   -3.0000   -2.5981    0.0000 O   0  0  0  0  0  0  0  0  0  0  0  0
   -0.7500   -3.8971    0.0000 N   0  0  0  0  0  0  0  0  0  0  0  0
   -1.5000   -5.1962    0.0000 C   0  0  0  0  0  0  0  0  0  0  0  0
   -3.0000   -5.1962    0.0000 C   0  0  0  0  0  0  0  0  0  0  0  0
   -3.7500   -6.4952    0.0000 C   0  0  0  0  0  0  0  0  0  0  0  0
   -3.0000   -7.7942    0.0000 C   0  0  0  0  0  0  0  0  0  0  0  0
   -1.5000   -7.7942    0.0000 C   0  0  0  0  0  0  0  0  0  0  0  0
   -0.7500   -6.4952    0.0000 C   0  0  0  0  0  0  0  0  0  0  0  0
  1  2  1  0
  3  2  1  1
  3  4  1  0
  4  5  1  0
  5  6  2  0
  6  7  1  0
  7  8  2  0
  8  9  1  0
  9 10  1  0
 10 11  1  0
 11 12  2  0
 12 13  1  0
  3 14  1  0
 14 15  2  0
 15 16  1  0
 16 17  2  0
 17 18  1  0
 18 19  2  0
 19 20  1  0
 20 21  1  0
 20 22  2  0
 22 23  1  0
 23 24  2  0
 23 25  1  0
 25 26  1  0
 26 27  2  0
 27 28  1  0
 28 29  2  0
 29 30  1  0
 30 31  2  0
 13  5  1  0
 13  9  2  0
 25 14  1  0
 22 16  1  0
 31 26  1  0
M  END
$$$$
421070
     RDKit          2D

 26 27  0  0  0  0  0  0  0  0999 V2000
   -1.0981   -5.5981    0.0000 C   0  0  0  0  0  0  0  0  0  0  0  0
    0.2010   -4.8481    0.0000 C   0  0  0  0  0  0  0  0  0  0  0  0
    0.2010   -3.3481    0.0000 C   0  0  0  0  0  0  0  0  0  0  0  0
   -1.0981   -2.5981    0.0000 O   0  0  0  0  0  0  0  0  0  0  0  0
   -2.3971   -3.3481    0.0000 C   0  0  0  0  0  0  0  0  0  0  0  0
   -2.3971   -4.8481    0.0000 O   0  0  0  0  0  0  0  0  0  0  0  0
   -3.6962   -2.5981    0.0000 C   0  0  0  0  0  0  0  0  0  0  0  0
    1.5000   -2.5981    0.0000 C   0  0  0  0  0  0  0  0  0  0  0  0
    2.2500   -3.8971    0.0000 C   0  0  0  0  0  0  0  0  0  0  0  0
    3.7500   -3.8971    0.0000 C   0  0  0  0  0  0  0  0  0  0  0  0
    4.7920   -2.8182    0.0000 C   0  0  0  0  0  0  0  0  0  0  0  0
    4.5000   -5.1962    0.0000 N   0  0  0  0  0  0  0  0  0  0  0  0
    6.0000   -5.1962    0.0000 C   0  0  0  0  0  0  0  0  0  0  0  0
    3.7500   -6.4952    0.0000 C   0  0  0  0  0  0  0  0  0  0  0  0
    0.7500   -1.2990    0.0000 C   0  0  0  0  0  0  0  0  0  0  0  0
    1.5000    0.0000    0.0000 C   0  0  0  0  0  0  0  0  0  0  0  0
    0.7500    1.2990    0.0000 C   0  0  0  0  0  0  0  0  0  0  0  0
   -0.7500    1.2990    0.0000 C   0  0  0  0  0  0  0  0  0  0  0  0
   -1.5000    0.0000    0.0000 C   0  0  0  0  0  0  0  0  0  0  0  0
   -0.7500   -1.2990    0.0000 C   0  0  0  0  0  0  0  0  0  0  0  0
    2.7990   -1.8481    0.0000 C   0  0  0  0  0  0  0  0  0  0  0  0
    2.7990   -0.3481    0.0000 C   0  0  0  0  0  0  0  0  0  0  0  0
    4.0981    0.4019    0.0000 C   0  0  0  0  0  0  0  0  0  0  0  0
    5.3971   -0.3481    0.0000 C   0  0  0  0  0  0  0  0  0  0  0  0
    5.3971   -1.8481    0.0000 C   0  0  0  0  0  0  0  0  0  0  0  0
    4.0981   -2.5981    0.0000 C   0  0  0  0  0  0  0  0  0  0  0  0
  1  2  1  0
  3  2  1  6
  3  4  1  0
  4  5  1  0
  5  6  2  0
  5  7  1  0
  3  8  1  0
  8  9  1  0
  9 10  1  0
 10 11  1  6
 10 12  1  0
 12 13  1  0
 12 14  1  0
  8 15  1  0
 15 16  2  0
 16 17  1  0
 17 18  2  0
 18 19  1  0
 19 20  2  0
  8 21  1  0
 21 22  2  0
 22 23  1  0
 23 24  2  0
 24 25  1  0
 25 26  2  0
 20 15  1  0
 26 21  1  0
M  END
$$$$
675727
     RDKit          2D

 16 16  0  0  0  0  0  0  0  0999 V2000
    5.2500   -1.2990    0.0000 C   0  0  0  0  0  0  0  0  0  0  0  0
    3.7500   -1.2990    0.0000 C   0  0  0  0  0  0  0  0  0  0  0  0
    3.0000    0.0000    0.0000 C   0  0  0  0  0  0  0  0  0  0  0  0
    3.7500    1.2990    0.0000 C   0  0  0  0  0  0  0  0  0  0  0  0
    5.2500    1.2990    0.0000 C   0  0  0  0  0  0  0  0  0  0  0  0
    3.0000    2.5981    0.0000 C   0  0  0  0  0  0  0  0  0  0  0  0
    3.7500    3.8971    0.0000 N   0  0  0  0  0  0  0  0  0  0  0  0
    3.0000    5.1962    0.0000 C   0  0  0  0  0  0  0  0  0  0  0  0
    5.2500    3.8971    0.0000 C   0  0  0  0  0  0  0  0  0  0  0  0
    1.5000    0.0000    0.0000 C   0  0  0  0  0  0  0  0  0  0  0  0
    0.7500   -1.2990    0.0000 C   0  0  0  0  0  0  0  0  0  0  0  0
   -0.7500   -1.2990    0.0000 C   0  0  0  0  0  0  0  0  0  0  0  0
   -1.5000    0.0000    0.0000 C   0  0  0  0  0  0  0  0  0  0  0  0
   -0.7500    1.2990    0.0000 C   0  0  0  0  0  0  0  0  0  0  0  0
   -1.5000    2.5981    0.0000 O   0  0  0  0  0  0  0  0  0  0  0  0
    0.7500    1.2990    0.0000 C   0  0  0  0  0  0  0  0  0  0  0  0
  1  2  1  0
  3  2  1  1
  3  4  1  0
  4  5  1  6
  4  6  1  0
  6  7  1  0
  7  8  1  0
  7  9  1  0
  3 10  1  0
 10 11  2  0
 11 12  1  0
 12 13  2  0
 13 14  1  0
 14 15  1  0
 14 16  2  0
 16 10  1  0
M  END
$$$$
171587
     RDKit          2D

 58 62  0  0  0  0  0  0  0  0999 V2000
   -0.7339   -4.5199    0.0000 C   0  0  0  0  0  0  0  0  0  0  0  0
   -0.5104   -3.0367    0.0000 C   0  0  0  0  0  0  0  0  0  0  0  0
   -1.6831   -2.1015    0.0000 C   0  0  0  0  0  0  0  0  0  0  0  0
   -2.8559   -3.0367    0.0000 O   0  0  0  0  0  0  0  0  0  0  0  0
   -4.3183   -3.3705    0.0000 C   0  0  0  0  0  0  0  0  0  0  0  0
   -4.3183   -4.8705    0.0000 O   0  0  0  0  0  0  0  0  0  0  0  0
   -5.7806   -3.0367    0.0000 C   0  0  0  0  0  0  0  0  0  0  0  0
   -6.4315   -4.3881    0.0000 C   0  0  0  0  0  0  0  0  0  0  0  0
   -6.9534   -2.1015    0.0000 C   0  0  0  0  0  0  0  0  0  0  0  0
   -8.1261   -3.0367    0.0000 O   0  0  0  0  0  0  0  0  0  0  0  0
   -7.6042   -0.7500    0.0000 C   0  0  0  0  0  0  0  0  0  0  0  0
   -9.0666   -1.0838    0.0000 C   0  0  0  0  0  0  0  0  0  0  0  0
   -7.6042    0.7500    0.0000 C   0  0  0  0  0  0  0  0  0  0  0  0
   -9.0666    1.0838    0.0000 O   0  0  0  0  0  0  0  0  0  0  0  0
   -9.5087    2.5171    0.0000 C   0  0  0  0  0  0  0  0  0  0  0  0
   -8.4885    3.6167    0.0000 O   0  0  0  0  0  0  0  0  0  0  0  0
   -8.9306    5.0501    0.0000 C   0  0  0  0  0  0  0  0  0  0  0  0
   -7.9104    6.1497    0.0000 C   0  0  0  0  0  0  0  0  0  0  0  0
  -10.3930    5.3839    0.0000 C   0  0  0  0  0  0  0  0  0  0  0  0
  -11.4133    4.2843    0.0000 C   0  0  0  0  0  0  0  0  0  0  0  0
  -10.9711    2.8509    0.0000 C   0  0  0  0  0  0  0  0  0  0  0  0
  -11.9914    1.7513    0.0000 O   0  0  0  0  0  0  0  0  0  0  0  0
  -12.8757    4.6181    0.0000 N   0  0  0  0  0  0  0  0  0  0  0  0
  -13.3178    6.0514    0.0000 C   0  0  0  0  0  0  0  0  0  0  0  0
  -13.8959    3.5185    0.0000 C   0  0  0  0  0  0  0  0  0  0  0  0
   -6.9534    2.1015    0.0000 C   0  0  0  0  0  0  0  0  0  0  0  0
   -8.4492    2.2135    0.0000 C   0  0  0  0  0  0  0  0  0  0  0  0
   -5.7806    3.0367    0.0000 C   0  0  0  0  0  0  0  0  0  0  0  0
   -4.3183    3.3705    0.0000 C   0  0  0  0  0  0  0  0  0  0  0  0
   -4.3183    4.8705    0.0000 C   0  0  0  0  0  0  0  0  0  0  0  0
   -2.8559    3.0367    0.0000 C   0  0  0  0  0  0  0  0  0  0  0  0
   -2.2050    4.3881    0.0000 O   0  0  0  0  0  0  0  0  0  0  0  0
   -1.6831    2.1015    0.0000 C   0  0  0  0  0  0  0  0  0  0  0  0
   -0.5104    3.0367    0.0000 C   0  0  0  0  0  0  0  0  0  0  0  0
   -1.0323    0.7500    0.0000 C   0  0  0  0  0  0  0  0  0  0  0  0
    0.3943    1.2135    0.0000 N   0  0  0  0  0  0  0  0  0  0  0  0
    0.8578    2.6401    0.0000 C   0  0  0  0  0  0  0  0  0  0  0  0
    2.3250    2.9520    0.0000 C   0  0  0  0  0  0  0  0  0  0  0  0
    2.7886    4.3786    0.0000 C   0  0  0  0  0  0  0  0  0  0  0  0
    4.2558    4.6904    0.0000 C   0  0  0  0  0  0  0  0  0  0  0  0
    4.7193    6.1170    0.0000 N   0  0  0  0  0  0  0  0  0  0  0  0
    3.8376    7.3305    0.0000 C   0  0  0  0  0  0  0  0  0  0  0  0
    4.7193    8.5441    0.0000 N   0  0  0  0  0  0  0  0  0  0  0  0
    6.1459    8.0805    0.0000 C   0  0  0  0  0  0  0  0  0  0  0  0
    6.1459    6.5805    0.0000 C   0  0  0  0  0  0  0  0  0  0  0  0
    7.3594    8.9622    0.0000 C   0  0  0  0  0  0  0  0  0  0  0  0
    8.7297    8.3521    0.0000 C   0  0  0  0  0  0  0  0  0  0  0  0
    9.9433    9.2338    0.0000 C   0  0  0  0  0  0  0  0  0  0  0  0
    9.7865   10.7256    0.0000 C   0  0  0  0  0  0  0  0  0  0  0  0
    8.4162   11.3357    0.0000 N   0  0  0  0  0  0  0  0  0  0  0  0
    7.2026   10.4540    0.0000 C   0  0  0  0  0  0  0  0  0  0  0  0
    1.2760    0.0000    0.0000 C   0  0  0  0  0  0  0  0  0  0  0  0
    2.7760    0.0000    0.0000 O   0  0  0  0  0  0  0  0  0  0  0  0
    0.3943   -1.2135    0.0000 O   0  0  0  0  0  0  0  0  0  0  0  0
   -1.0323   -0.7500    0.0000 C   0  0  0  0  0  0  0  0  0  0  0  0
   -0.4427   -2.1293    0.0000 C   0  0  0  0  0  0  0  0  0  0  0  0
   -7.3955    3.5348    0.0000 O   0  0  0  0  0  0  0  0  0  0  0  0
   -6.3753    4.6344    0.0000 C   0  0  0  0  0  0  0  0  0  0  0  0
  1  2  1  0
  3  2  1  1
  3  4  1  0
  4  5  1  0
  5  6  2  0
  5  7  1  0
  7  8  1  6
  7  9  1  0
  9 10  2  0
  9 11  1  0
 11 12  1  6
 11 13  1  0
 13 14  1  1
 15 14  1  1
 15 16  1  0
 16 17  1  0
 17 18  1  1
 17 19  1  0
 19 20  1  0
 20 21  1  0
 21 22  1  6
 20 23  1  1
 23 24  1  0
 23 25  1  0
 13 26  1  0
 26 27  1  1
 26 28  1  0
 28 29  1  0
 29 30  1  1
 29 31  1  0
 31 32  2  0
 31 33  1  0
 33 34  1  6
 33 35  1  0
 35 36  1  1
 36 37  1  0
 37 38  1  0
 38 39  1  0
 39 40  1  0
 40 41  1  0
 41 42  1  0
 42 43  2  0
 43 44  1  0
 44 45  2  0
 44 46  1  0
 46 47  2  0
 47 48  1  0
 48 49  2  0
 49 50  1  0
 50 51  2  0
 36 52  1  0
 52 53  2  0
 52 54  1  0
 54 55  1  0
 55 56  1  1
 26 57  1  0
 57 58  1  0
 55  3  1  0
 21 15  1  0
 55 35  1  0
 45 41  1  0
 51 46  1  0
M  END
$$$$
570147
     RDKit          2D

 52 54  0  0  0  0  0  0  0  0999 V2000
    5.6205   -1.2990    0.0000 C   0  0  0  0  0  0  0  0  0  0  0  0
    4.8705    0.0000    0.0000 C   0  0  0  0  0  0  0  0  0  0  0  0
    3.3705    0.0000    0.0000 C   0  0  0  0  0  0  0  0  0  0  0  0
    3.0367   -1.4624    0.0000 O   0  0  0  0  0  0  0  0  0  0  0  0
    2.1015   -2.6351    0.0000 C   0  0  0  0  0  0  0  0  0  0  0  0
    3.0367   -3.8079    0.0000 O   0  0  0  0  0  0  0  0  0  0  0  0
    0.7500   -3.2860    0.0000 C   0  0  0  0  0  0  0  0  0  0  0  0
    1.3600   -4.4903    0.0000 C   0  0  0  0  0  0  0  0  0  0  0  0
   -0.7500   -3.2860    0.0000 C   0  0  0  0  0  0  0  0  0  0  0  0
   -1.0838   -4.7484    0.0000 O   0  0  0  0  0  0  0  0  0  0  0  0
    0.0158   -5.7686    0.0000 C   0  0  0  0  0  0  0  0  0  0  0  0
   -0.3180   -7.2310    0.0000 C   0  0  0  0  0  0  0  0  0  0  0  0
    0.7816   -8.2513    0.0000 C   0  0  0  0  0  0  0  0  0  0  0  0
    1.4659   -9.5861    0.0000 C   0  0  0  0  0  0  0  0  0  0  0  0
   -0.4141   -9.1570    0.0000 O   0  0  0  0  0  0  0  0  0  0  0  0
   -0.2276  -10.6453    0.0000 C   0  0  0  0  0  0  0  0  0  0  0  0
    2.2150   -7.8091    0.0000 C   0  0  0  0  0  0  0  0  0  0  0  0
    3.3145   -8.8294    0.0000 O   0  0  0  0  0  0  0  0  0  0  0  0
    2.5487   -6.3467    0.0000 C   0  0  0  0  0  0  0  0  0  0  0  0
    3.9821   -5.9046    0.0000 C   0  0  0  0  0  0  0  0  0  0  0  0
    1.4492   -5.3265    0.0000 O   0  0  0  0  0  0  0  0  0  0  0  0
   -2.1015   -2.6351    0.0000 C   0  0  0  0  0  0  0  0  0  0  0  0
   -3.0367   -3.8079    0.0000 C   0  0  0  0  0  0  0  0  0  0  0  0
   -3.0367   -1.4624    0.0000 C   0  0  0  0  0  0  0  0  0  0  0  0
   -4.3881   -2.1132    0.0000 O   0  0  0  0  0  0  0  0  0  0  0  0
   -5.6275   -1.2682    0.0000 C   0  0  0  0  0  0  0  0  0  0  0  0
   -5.5154    0.2276    0.0000 O   0  0  0  0  0  0  0  0  0  0  0  0
   -6.7548    1.0725    0.0000 C   0  0  0  0  0  0  0  0  0  0  0  0
   -6.6427    2.5684    0.0000 C   0  0  0  0  0  0  0  0  0  0  0  0
   -8.1062    0.4217    0.0000 C   0  0  0  0  0  0  0  0  0  0  0  0
   -8.2183   -1.0741    0.0000 C   0  0  0  0  0  0  0  0  0  0  0  0
   -6.9790   -1.9191    0.0000 C   0  0  0  0  0  0  0  0  0  0  0  0
   -7.0910   -3.4149    0.0000 O   0  0  0  0  0  0  0  0  0  0  0  0
   -9.5698   -1.7249    0.0000 N   0  0  0  0  0  0  0  0  0  0  0  0
  -10.8091   -0.8799    0.0000 C   0  0  0  0  0  0  0  0  0  0  0  0
   -9.6819   -3.2207    0.0000 C   0  0  0  0  0  0  0  0  0  0  0  0
   -3.3705    0.0000    0.0000 C   0  0  0  0  0  0  0  0  0  0  0  0
   -4.6098   -0.8450    0.0000 C   0  0  0  0  0  0  0  0  0  0  0  0
   -3.0367    1.4624    0.0000 C   0  0  0  0  0  0  0  0  0  0  0  0
   -2.1015    2.6351    0.0000 C   0  0  0  0  0  0  0  0  0  0  0  0
   -3.0367    3.8079    0.0000 C   0  0  0  0  0  0  0  0  0  0  0  0
   -0.7500    3.2860    0.0000 C   0  0  0  0  0  0  0  0  0  0  0  0
   -1.0838    4.7484    0.0000 O   0  0  0  0  0  0  0  0  0  0  0  0
    0.7500    3.2860    0.0000 C   0  0  0  0  0  0  0  0  0  0  0  0
    1.0838    4.7484    0.0000 C   0  0  0  0  0  0  0  0  0  0  0  0
    2.1015    2.6351    0.0000 C   0  0  0  0  0  0  0  0  0  0  0  0
    3.0367    3.8079    0.0000 O   0  0  0  0  0  0  0  0  0  0  0  0
    3.0367    1.4624    0.0000 C   0  0  0  0  0  0  0  0  0  0  0  0
    3.7867    2.7614    0.0000 C   0  0  0  0  0  0  0  0  0  0  0  0
    4.5199    1.2388    0.0000 O   0  0  0  0  0  0  0  0  0  0  0  0
   -4.6098    0.8450    0.0000 O   0  0  0  0  0  0  0  0  0  0  0  0
   -5.3904    0.6832    0.0000 C   0  0  0  0  0  0  0  0  0  0  0  0
  1  2  1  0
  3  2  1  1
  3  4  1  0
  4  5  1  0
  5  6  2  0
  5  7  1  0
  7  8  1  6
  7  9  1  0
  9 10  1  1
 11 10  1  6
 11 12  1  0
 12 13  1  0
 13 14  1  1
 13 15  1  0
 15 16  1  0
 13 17  1  0
 17 18  1  6
 17 19  1  0
 19 20  1  1
 19 21  1  0
  9 22  1  0
 22 23  1  6
 22 24  1  0
 24 25  1  1
 26 25  1  1
 26 27  1  0
 27 28  1  0
 28 29  1  1
 28 30  1  0
 30 31  1  0
 31 32  1  0
 32 33  1  6
 31 34  1  1
 34 35  1  0
 34 36  1  0
 24 37  1  0
 37 38  1  1
 37 39  1  0
 39 40  1  0
 40 41  1  1
 40 42  1  0
 42 43  2  0
 42 44  1  0
 44 45  1  6
 44 46  1  0
 46 47  1  1
 46 48  1  0
 48 49  1  1
 48 50  1  0
 37 51  1  0
 51 52  1  0
 48  3  1  0
 21 11  1  0
 32 26  1  0
M  END
$$$$
12506
     RDKit          2D

 51 53  0  0  0  0  0  0  0  0999 V2000
    5.6205   -1.2990    0.0000 C   0  0  0  0  0  0  0  0  0  0  0  0
    4.8705    0.0000    0.0000 C   0  0  0  0  0  0  0  0  0  0  0  0
    3.3705    0.0000    0.0000 C   0  0  0  0  0  0  0  0  0  0  0  0
    3.0367   -1.4624    0.0000 O   0  0  0  0  0  0  0  0  0  0  0  0
    2.1015   -2.6351    0.0000 C   0  0  0  0  0  0  0  0  0  0  0  0
    3.0367   -3.8079    0.0000 O   0  0  0  0  0  0  0  0  0  0  0  0
    0.7500   -3.2860    0.0000 C   0  0  0  0  0  0  0  0  0  0  0  0
    1.3600   -4.4903    0.0000 C   0  0  0  0  0  0  0  0  0  0  0  0
   -0.7500   -3.2860    0.0000 C   0  0  0  0  0  0  0  0  0  0  0  0
   -1.0838   -4.7484    0.0000 O   0  0  0  0  0  0  0  0  0  0  0  0
    0.0158   -5.7686    0.0000 C   0  0  0  0  0  0  0  0  0  0  0  0
   -0.3180   -7.2310    0.0000 C   0  0  0  0  0  0  0  0  0  0  0  0
    0.7816   -8.2513    0.0000 C   0  0  0  0  0  0  0  0  0  0  0  0
    1.4659   -9.5861    0.0000 C   0  0  0  0  0  0  0  0  0  0  0  0
   -0.4141   -9.1570    0.0000 O   0  0  0  0  0  0  0  0  0  0  0  0
   -0.2276  -10.6453    0.0000 C   0  0  0  0  0  0  0  0  0  0  0  0
    2.2150   -7.8091    0.0000 C   0  0  0  0  0  0  0  0  0  0  0  0
    3.3145   -8.8294    0.0000 O   0  0  0  0  0  0  0  0  0  0  0  0
    2.5487   -6.3467    0.0000 C   0  0  0  0  0  0  0  0  0  0  0  0
    3.9821   -5.9046    0.0000 C   0  0  0  0  0  0  0  0  0  0  0  0
    1.4492   -5.3265    0.0000 O   0  0  0  0  0  0  0  0  0  0  0  0
   -2.1015   -2.6351    0.0000 C   0  0  0  0  0  0  0  0  0  0  0  0
   -3.0367   -3.8079    0.0000 C   0  0  0  0  0  0  0  0  0  0  0  0
   -3.0367   -1.4624    0.0000 C   0  0  0  0  0  0  0  0  0  0  0  0
   -4.3881   -2.1132    0.0000 O   0  0  0  0  0  0  0  0  0  0  0  0
   -5.6275   -1.2682    0.0000 C   0  0  0  0  0  0  0  0  0  0  0  0
   -5.5154    0.2276    0.0000 O   0  0  0  0  0  0  0  0  0  0  0  0
   -6.7548    1.0725    0.0000 C   0  0  0  0  0  0  0  0  0  0  0  0
   -6.6427    2.5684    0.0000 C   0  0  0  0  0  0  0  0  0  0  0  0
   -8.1062    0.4217    0.0000 C   0  0  0  0  0  0  0  0  0  0  0  0
   -8.2183   -1.0741    0.0000 C   0  0  0  0  0  0  0  0  0  0  0  0
   -6.9790   -1.9191    0.0000 C   0  0  0  0  0  0  0  0  0  0  0  0
   -7.0910   -3.4149    0.0000 O   0  0  0  0  0  0  0  0  0  0  0  0
   -9.5698   -1.7249    0.0000 N   0  0  0  0  0  0  0  0  0  0  0  0
  -10.8091   -0.8799    0.0000 C   0  0  0  0  0  0  0  0  0  0  0  0
   -9.6819   -3.2207    0.0000 C   0  0  0  0  0  0  0  0  0  0  0  0
   -3.3705    0.0000    0.0000 C   0  0  0  0  0  0  0  0  0  0  0  0
   -4.6098   -0.8450    0.0000 C   0  0  0  0  0  0  0  0  0  0  0  0
   -4.6098    0.8450    0.0000 O   0  0  0  0  0  0  0  0  0  0  0  0
   -3.0367    1.4624    0.0000 C   0  0  0  0  0  0  0  0  0  0  0  0
   -2.1015    2.6351    0.0000 C   0  0  0  0  0  0  0  0  0  0  0  0
   -3.0367    3.8079    0.0000 C   0  0  0  0  0  0  0  0  0  0  0  0
   -0.7500    3.2860    0.0000 C   0  0  0  0  0  0  0  0  0  0  0  0
   -1.0838    4.7484    0.0000 O   0  0  0  0  0  0  0  0  0  0  0  0
    0.7500    3.2860    0.0000 C   0  0  0  0  0  0  0  0  0  0  0  0
    1.0838    4.7484    0.0000 C   0  0  0  0  0  0  0  0  0  0  0  0
    2.1015    2.6351    0.0000 C   0  0  0  0  0  0  0  0  0  0  0  0
    3.0367    3.8079    0.0000 O   0  0  0  0  0  0  0  0  0  0  0  0
    3.0367    1.4624    0.0000 C   0  0  0  0  0  0  0  0  0  0  0  0
    3.7867    2.7614    0.0000 C   0  0  0  0  0  0  0  0  0  0  0  0
    4.5199    1.2388    0.0000 O   0  0  0  0  0  0  0  0  0  0  0  0
  1  2  1  0
  3  2  1  1
  3  4  1  0
  4  5  1  0
  5  6  2  0
  5  7  1  0
  7  8  1  6
  7  9  1  0
  9 10  1  1
 11 10  1  6
 11 12  1  0
 12 13  1  0
 13 14  1  1
 13 15  1  0
 15 16  1  0
 13 17  1  0
 17 18  1  6
 17 19  1  0
 19 20  1  1
 19 21  1  0
  9 22  1  0
 22 23  1  6
 22 24  1  0
 24 25  1  1
 26 25  1  1
 26 27  1  0
 27 28  1  0
 28 29  1  1
 28 30  1  0
 30 31  1  0
 31 32  1  0
 32 33  1  6
 31 34  1  1
 34 35  1  0
 34 36  1  0
 24 37  1  0
 37 38  1  1
 37 39  1  0
 37 40  1  0
 40 41  1  0
 41 42  1  1
 41 43  1  0
 43 44  2  0
 43 45  1  0
 45 46  1  6
 45 47  1  0
 47 48  1  1
 47 49  1  0
 49 50  1  1
 49 51  1  0
 49  3  1  0
 21 11  1  0
 32 26  1  0
M  END
$$$$
12428
     RDKit          2D

 52 54  0  0  0  0  0  0  0  0999 V2000
    5.8573   -1.2990    0.0000 C   0  0  0  0  0  0  0  0  0  0  0  0
    5.1073    0.0000    0.0000 C   0  0  0  0  0  0  0  0  0  0  0  0
    3.6073    0.0000    0.0000 C   0  0  0  0  0  0  0  0  0  0  0  0
    3.2954    1.4672    0.0000 O   0  0  0  0  0  0  0  0  0  0  0  0
    2.4138    2.6807    0.0000 C   0  0  0  0  0  0  0  0  0  0  0  0
    3.4175    3.7955    0.0000 O   0  0  0  0  0  0  0  0  0  0  0  0
    1.1147    3.4307    0.0000 C   0  0  0  0  0  0  0  0  0  0  0  0
    1.8302    4.5756    0.0000 C   0  0  0  0  0  0  0  0  0  0  0  0
   -0.3771    3.5875    0.0000 C   0  0  0  0  0  0  0  0  0  0  0  0
   -0.5339    5.0793    0.0000 O   0  0  0  0  0  0  0  0  0  0  0  0
    0.6797    5.9610    0.0000 C   0  0  0  0  0  0  0  0  0  0  0  0
    0.5229    7.4528    0.0000 C   0  0  0  0  0  0  0  0  0  0  0  0
    1.7364    8.3345    0.0000 C   0  0  0  0  0  0  0  0  0  0  0  0
    2.5752    9.5780    0.0000 C   0  0  0  0  0  0  0  0  0  0  0  0
    0.6574    9.3764    0.0000 O   0  0  0  0  0  0  0  0  0  0  0  0
    1.0203   10.8319    0.0000 C   0  0  0  0  0  0  0  0  0  0  0  0
    3.1067    7.7244    0.0000 C   0  0  0  0  0  0  0  0  0  0  0  0
    4.3202    8.6060    0.0000 O   0  0  0  0  0  0  0  0  0  0  0  0
    3.2635    6.2326    0.0000 C   0  0  0  0  0  0  0  0  0  0  0  0
    4.6338    5.6225    0.0000 C   0  0  0  0  0  0  0  0  0  0  0  0
    2.0500    5.3509    0.0000 O   0  0  0  0  0  0  0  0  0  0  0  0
   -1.8037    3.1240    0.0000 C   0  0  0  0  0  0  0  0  0  0  0  0
   -2.5537    4.4231    0.0000 C   0  0  0  0  0  0  0  0  0  0  0  0
   -2.9184    2.1203    0.0000 C   0  0  0  0  0  0  0  0  0  0  0  0
   -4.1319    3.0020    0.0000 O   0  0  0  0  0  0  0  0  0  0  0  0
   -5.5022    2.3919    0.0000 C   0  0  0  0  0  0  0  0  0  0  0  0
   -6.7157    3.2736    0.0000 O   0  0  0  0  0  0  0  0  0  0  0  0
   -8.0861    2.6635    0.0000 C   0  0  0  0  0  0  0  0  0  0  0  0
   -9.2996    3.5451    0.0000 C   0  0  0  0  0  0  0  0  0  0  0  0
   -8.2428    1.1717    0.0000 C   0  0  0  0  0  0  0  0  0  0  0  0
   -7.0293    0.2900    0.0000 C   0  0  0  0  0  0  0  0  0  0  0  0
   -5.6590    0.9001    0.0000 C   0  0  0  0  0  0  0  0  0  0  0  0
   -5.0760    0.3564    0.0000 O   0  0  0  0  0  0  0  0  0  0  0  0
   -7.1861   -1.2018    0.0000 N   0  0  0  0  0  0  0  0  0  0  0  0
   -8.5564   -1.8119    0.0000 C   0  0  0  0  0  0  0  0  0  0  0  0
   -5.9726   -2.0835    0.0000 C   0  0  0  0  0  0  0  0  0  0  0  0
   -3.5285    0.7500    0.0000 C   0  0  0  0  0  0  0  0  0  0  0  0
   -4.2257    0.3635    0.0000 C   0  0  0  0  0  0  0  0  0  0  0  0
   -4.5705    1.8290    0.0000 O   0  0  0  0  0  0  0  0  0  0  0  0
   -3.5285   -0.7500    0.0000 C   0  0  0  0  0  0  0  0  0  0  0  0
   -2.9184   -2.1203    0.0000 C   0  0  0  0  0  0  0  0  0  0  0  0
   -4.1319   -3.0020    0.0000 C   0  0  0  0  0  0  0  0  0  0  0  0
   -1.8037   -3.1240    0.0000 C   0  0  0  0  0  0  0  0  0  0  0  0
   -0.3771   -3.5875    0.0000 N   0  0  0  0  0  0  0  0  0  0  0  0
   -0.5339   -5.0793    0.0000 C   0  0  0  0  0  0  0  0  0  0  0  0
    1.1147   -3.4307    0.0000 C   0  0  0  0  0  0  0  0  0  0  0  0
    1.5782   -4.8573    0.0000 C   0  0  0  0  0  0  0  0  0  0  0  0
    2.4138   -2.6807    0.0000 C   0  0  0  0  0  0  0  0  0  0  0  0
    3.4175   -3.7955    0.0000 O   0  0  0  0  0  0  0  0  0  0  0  0
    3.2954   -1.4672    0.0000 C   0  0  0  0  0  0  0  0  0  0  0  0
    4.7726   -1.2067    0.0000 C   0  0  0  0  0  0  0  0  0  0  0  0
    4.0903   -2.7393    0.0000 O   0  0  0  0  0  0  0  0  0  0  0  0
  1  2  1  0
  3  2  1  6
  3  4  1  0
  4  5  1  0
  5  6  2  0
  5  7  1  0
  7  8  1  1
  7  9  1  0
  9 10  1  6
 11 10  1  1
 11 12  1  0
 12 13  1  0
 13 14  1  6
 13 15  1  0
 15 16  1  0
 13 17  1  0
 17 18  1  1
 17 19  1  0
 19 20  1  6
 19 21  1  0
  9 22  1  0
 22 23  1  1
 22 24  1  0
 24 25  1  6
 26 25  1  1
 26 27  1  0
 27 28  1  0
 28 29  1  1
 28 30  1  0
 30 31  1  0
 31 32  1  0
 32 33  1  6
 31 34  1  1
 34 35  1  0
 34 36  1  0
 24 37  1  0
 37 38  1  6
 37 39  1  0
 37 40  1  0
 40 41  1  0
 41 42  1  6
 41 43  1  0
 43 44  1  0
 44 45  1  0
 44 46  1  0
 46 47  1  1
 46 48  1  0
 48 49  1  6
 48 50  1  0
 50 51  1  6
 50 52  1  0
 50  3  1  0
 21 11  1  0
 32 26  1  0
M  END
$$$$
1592294
     RDKit          2D

 58 61  0  0  0  0  0  0  0  0999 V2000
   -4.9884    1.4141    0.0000 C   0  0  0  0  0  0  0  0  0  0  0  0
   -5.3222   -0.0483    0.0000 C   0  0  0  0  0  0  0  0  0  0  0  0
   -4.2226   -1.0685    0.0000 C   0  0  0  0  0  0  0  0  0  0  0  0
   -4.9726   -2.3676    0.0000 O   0  0  0  0  0  0  0  0  0  0  0  0
   -5.0847   -3.8634    0.0000 C   0  0  0  0  0  0  0  0  0  0  0  0
   -6.5679   -4.0870    0.0000 O   0  0  0  0  0  0  0  0  0  0  0  0
   -4.5367   -5.2597    0.0000 C   0  0  0  0  0  0  0  0  0  0  0  0
   -5.8030   -5.7277    0.0000 C   0  0  0  0  0  0  0  0  0  0  0  0
   -3.4371   -6.2800    0.0000 C   0  0  0  0  0  0  0  0  0  0  0  0
   -4.1871   -7.5790    0.0000 O   0  0  0  0  0  0  0  0  0  0  0  0
   -5.6871   -7.5790    0.0000 C   0  0  0  0  0  0  0  0  0  0  0  0
   -6.4371   -8.8780    0.0000 C   0  0  0  0  0  0  0  0  0  0  0  0
   -7.9371   -8.8780    0.0000 C   0  0  0  0  0  0  0  0  0  0  0  0
   -9.3466   -9.3911    0.0000 C   0  0  0  0  0  0  0  0  0  0  0  0
   -7.6766  -10.3552    0.0000 O   0  0  0  0  0  0  0  0  0  0  0  0
   -8.8257  -11.3194    0.0000 C   0  0  0  0  0  0  0  0  0  0  0  0
   -8.6871   -7.5790    0.0000 C   0  0  0  0  0  0  0  0  0  0  0  0
  -10.1871   -7.5790    0.0000 O   0  0  0  0  0  0  0  0  0  0  0  0
   -7.9371   -6.2800    0.0000 C   0  0  0  0  0  0  0  0  0  0  0  0
   -8.6871   -4.9809    0.0000 C   0  0  0  0  0  0  0  0  0  0  0  0
   -6.4371   -6.2800    0.0000 O   0  0  0  0  0  0  0  0  0  0  0  0
   -2.0038   -6.7221    0.0000 C   0  0  0  0  0  0  0  0  0  0  0  0
   -2.1158   -8.2179    0.0000 C   0  0  0  0  0  0  0  0  0  0  0  0
   -0.5205   -6.4985    0.0000 C   0  0  0  0  0  0  0  0  0  0  0  0
    0.0275   -7.8948    0.0000 O   0  0  0  0  0  0  0  0  0  0  0  0
    1.5108   -8.1184    0.0000 C   0  0  0  0  0  0  0  0  0  0  0  0
    2.0588   -9.5147    0.0000 O   0  0  0  0  0  0  0  0  0  0  0  0
    3.5420   -9.7383    0.0000 C   0  0  0  0  0  0  0  0  0  0  0  0
    4.0900  -11.1346    0.0000 C   0  0  0  0  0  0  0  0  0  0  0  0
    4.4772   -8.5655    0.0000 C   0  0  0  0  0  0  0  0  0  0  0  0
    3.9292   -7.1692    0.0000 C   0  0  0  0  0  0  0  0  0  0  0  0
    2.4460   -6.9457    0.0000 C   0  0  0  0  0  0  0  0  0  0  0  0
    2.2474   -6.1736    0.0000 O   0  0  0  0  0  0  0  0  0  0  0  0
    4.8645   -5.9965    0.0000 N   0  0  0  0  0  0  0  0  0  0  0  0
    6.3477   -6.2200    0.0000 C   0  0  0  0  0  0  0  0  0  0  0  0
    4.3165   -4.6002    0.0000 C   0  0  0  0  0  0  0  0  0  0  0  0
    0.7189   -5.6535    0.0000 C   0  0  0  0  0  0  0  0  0  0  0  0
    1.0526   -7.1159    0.0000 C   0  0  0  0  0  0  0  0  0  0  0  0
    1.5157   -5.6754    0.0000 O   0  0  0  0  0  0  0  0  0  0  0  0
    1.4689   -4.3545    0.0000 C   0  0  0  0  0  0  0  0  0  0  0  0
    1.5809   -2.8587    0.0000 C   0  0  0  0  0  0  0  0  0  0  0  0
    3.0642   -2.6351    0.0000 C   0  0  0  0  0  0  0  0  0  0  0  0
    0.7500   -1.2990    0.0000 C   0  0  0  0  0  0  0  0  0  0  0  0
    1.5000    0.0000    0.0000 N   0  0  0  0  0  0  0  0  0  0  0  0
    0.7500    1.2990    0.0000 C   0  0  0  0  0  0  0  0  0  0  0  0
    1.5000    2.5981    0.0000 C   0  0  0  0  0  0  0  0  0  0  0  0
    3.0000    2.5981    0.0000 O   0  0  0  0  0  0  0  0  0  0  0  0
    3.7500    3.8971    0.0000 C   0  0  0  0  0  0  0  0  0  0  0  0
    5.2500    3.8971    0.0000 C   0  0  0  0  0  0  0  0  0  0  0  0
    6.0000    5.1962    0.0000 O   0  0  0  0  0  0  0  0  0  0  0  0
    7.5000    5.1962    0.0000 C   0  0  0  0  0  0  0  0  0  0  0  0
   -0.7500    1.2990    0.0000 O   0  0  0  0  0  0  0  0  0  0  0  0
   -1.5000    0.0000    0.0000 C   0  0  0  0  0  0  0  0  0  0  0  0
   -0.7500   -1.2990    0.0000 C   0  0  0  0  0  0  0  0  0  0  0  0
   -1.5000   -2.5981    0.0000 C   0  0  0  0  0  0  0  0  0  0  0  0
   -2.9832   -0.2236    0.0000 C   0  0  0  0  0  0  0  0  0  0  0  0
   -2.6495    1.2388    0.0000 C   0  0  0  0  0  0  0  0  0  0  0  0
   -4.2226    0.6214    0.0000 O   0  0  0  0  0  0  0  0  0  0  0  0
  1  2  1  0
  3  2  1  6
  3  4  1  0
  4  5  1  0
  5  6  2  0
  5  7  1  0
  7  8  1  1
  7  9  1  0
  9 10  1  6
 11 10  1  1
 11 12  1  0
 12 13  1  0
 13 14  1  6
 13 15  1  0
 15 16  1  0
 13 17  1  0
 17 18  1  1
 17 19  1  0
 19 20  1  6
 19 21  1  0
  9 22  1  0
 22 23  1  1
 22 24  1  0
 24 25  1  6
 26 25  1  1
 26 27  1  0
 27 28  1  0
 28 29  1  1
 28 30  1  0
 30 31  1  0
 31 32  1  0
 32 33  1  6
 31 34  1  1
 34 35  1  0
 34 36  1  0
 24 37  1  0
 37 38  1  6
 37 39  1  0
 37 40  1  0
 40 41  1  0
 41 42  1  6
 41 43  1  0
 43 44  1  1
 44 45  1  0
 45 46  1  6
 46 47  1  0
 47 48  1  0
 48 49  1  0
 49 50  1  0
 50 51  1  0
 45 52  1  0
 53 52  1  6
 53 54  1  0
 54 55  1  6
 53 56  1  0
 56 57  1  6
 56 58  1  0
 56  3  1  0
 21 11  1  0
 32 26  1  0
 54 43  1  0
M  END
$$$$
1450238
     RDKit          2D

 55 57  0  0  0  0  0  0  0  0999 V2000
    5.6205   -1.2990    0.0000 C   0  0  0  0  0  0  0  0  0  0  0  0
    4.8705    0.0000    0.0000 C   0  0  0  0  0  0  0  0  0  0  0  0
    3.3705    0.0000    0.0000 C   0  0  0  0  0  0  0  0  0  0  0  0
    3.0367   -1.4624    0.0000 O   0  0  0  0  0  0  0  0  0  0  0  0
    2.1015   -2.6351    0.0000 C   0  0  0  0  0  0  0  0  0  0  0  0
    3.0367   -3.8079    0.0000 O   0  0  0  0  0  0  0  0  0  0  0  0
    0.7500   -3.2860    0.0000 C   0  0  0  0  0  0  0  0  0  0  0  0
    1.3600   -4.4903    0.0000 C   0  0  0  0  0  0  0  0  0  0  0  0
   -0.7500   -3.2860    0.0000 C   0  0  0  0  0  0  0  0  0  0  0  0
   -1.0838   -4.7484    0.0000 O   0  0  0  0  0  0  0  0  0  0  0  0
    0.0158   -5.7686    0.0000 C   0  0  0  0  0  0  0  0  0  0  0  0
   -0.3180   -7.2310    0.0000 C   0  0  0  0  0  0  0  0  0  0  0  0
    0.7816   -8.2513    0.0000 C   0  0  0  0  0  0  0  0  0  0  0  0
    1.4659   -9.5861    0.0000 C   0  0  0  0  0  0  0  0  0  0  0  0
   -0.4141   -9.1570    0.0000 O   0  0  0  0  0  0  0  0  0  0  0  0
   -0.2276  -10.6453    0.0000 C   0  0  0  0  0  0  0  0  0  0  0  0
    2.2150   -7.8091    0.0000 C   0  0  0  0  0  0  0  0  0  0  0  0
    3.3145   -8.8294    0.0000 O   0  0  0  0  0  0  0  0  0  0  0  0
    2.5487   -6.3467    0.0000 C   0  0  0  0  0  0  0  0  0  0  0  0
    3.9821   -5.9046    0.0000 C   0  0  0  0  0  0  0  0  0  0  0  0
    1.4492   -5.3265    0.0000 O   0  0  0  0  0  0  0  0  0  0  0  0
   -2.1015   -2.6351    0.0000 C   0  0  0  0  0  0  0  0  0  0  0  0
   -3.0367   -3.8079    0.0000 C   0  0  0  0  0  0  0  0  0  0  0  0
   -3.0367   -1.4624    0.0000 C   0  0  0  0  0  0  0  0  0  0  0  0
   -4.3881   -2.1132    0.0000 O   0  0  0  0  0  0  0  0  0  0  0  0
   -5.6275   -1.2682    0.0000 C   0  0  0  0  0  0  0  0  0  0  0  0
   -5.5154    0.2276    0.0000 O   0  0  0  0  0  0  0  0  0  0  0  0
   -6.7548    1.0725    0.0000 C   0  0  0  0  0  0  0  0  0  0  0  0
   -6.6427    2.5684    0.0000 C   0  0  0  0  0  0  0  0  0  0  0  0
   -8.1062    0.4217    0.0000 C   0  0  0  0  0  0  0  0  0  0  0  0
   -8.2183   -1.0741    0.0000 C   0  0  0  0  0  0  0  0  0  0  0  0
   -6.9790   -1.9191    0.0000 C   0  0  0  0  0  0  0  0  0  0  0  0
   -7.0910   -3.4149    0.0000 O   0  0  0  0  0  0  0  0  0  0  0  0
   -8.4425   -4.0657    0.0000 C   0  0  0  0  0  0  0  0  0  0  0  0
   -9.4143   -3.5644    0.0000 O   0  0  0  0  0  0  0  0  0  0  0  0
   -8.5546   -5.5615    0.0000 C   0  0  0  0  0  0  0  0  0  0  0  0
   -9.9060   -6.2123    0.0000 C   0  0  0  0  0  0  0  0  0  0  0  0
   -9.5698   -1.7249    0.0000 N   0  0  0  0  0  0  0  0  0  0  0  0
  -10.8091   -0.8799    0.0000 C   0  0  0  0  0  0  0  0  0  0  0  0
   -9.7838   -2.7973    0.0000 C   0  0  0  0  0  0  0  0  0  0  0  0
   -3.3705    0.0000    0.0000 C   0  0  0  0  0  0  0  0  0  0  0  0
   -4.6098   -0.8450    0.0000 C   0  0  0  0  0  0  0  0  0  0  0  0
   -4.6098    0.8450    0.0000 O   0  0  0  0  0  0  0  0  0  0  0  0
   -3.0367    1.4624    0.0000 C   0  0  0  0  0  0  0  0  0  0  0  0
   -2.1015    2.6351    0.0000 C   0  0  0  0  0  0  0  0  0  0  0  0
   -3.0367    3.8079    0.0000 C   0  0  0  0  0  0  0  0  0  0  0  0
   -0.7500    3.2860    0.0000 C   0  0  0  0  0  0  0  0  0  0  0  0
   -1.0838    4.7484    0.0000 O   0  0  0  0  0  0  0  0  0  0  0  0
    0.7500    3.2860    0.0000 C   0  0  0  0  0  0  0  0  0  0  0  0
    1.0838    4.7484    0.0000 C   0  0  0  0  0  0  0  0  0  0  0  0
    2.1015    2.6351    0.0000 C   0  0  0  0  0  0  0  0  0  0  0  0
    3.0367    3.8079    0.0000 O   0  0  0  0  0  0  0  0  0  0  0  0
    3.0367    1.4624    0.0000 C   0  0  0  0  0  0  0  0  0  0  0  0
    3.7867    2.7614    0.0000 C   0  0  0  0  0  0  0  0  0  0  0  0
    4.5199    1.2388    0.0000 O   0  0  0  0  0  0  0  0  0  0  0  0
  1  2  1  0
  3  2  1  1
  3  4  1  0
  4  5  1  0
  5  6  2  0
  5  7  1  0
  7  8  1  6
  7  9  1  0
  9 10  1  1
 11 10  1  6
 11 12  1  0
 12 13  1  0
 13 14  1  1
 13 15  1  0
 15 16  1  0
 13 17  1  0
 17 18  1  6
 17 19  1  0
 19 20  1  1
 19 21  1  0
  9 22  1  0
 22 23  1  6
 22 24  1  0
 24 25  1  1
 26 25  1  1
 26 27  1  0
 27 28  1  0
 28 29  1  1
 28 30  1  0
 30 31  1  0
 31 32  1  0
 32 33  1  6
 33 34  1  0
 34 35  2  0
 34 36  1  0
 36 37  1  0
 31 38  1  1
 38 39  1  0
 38 40  1  0
 24 41  1  0
 41 42  1  1
 41 43  1  0
 41 44  1  0
 44 45  1  0
 45 46  1  1
 45 47  1  0
 47 48  2  0
 47 49  1  0
 49 50  1  6
 49 51  1  0
 51 52  1  1
 51 53  1  0
 53 54  1  1
 53 55  1  0
 53  3  1  0
 21 11  1  0
 32 26  1  0
M  END
$$$$
14406
     RDKit          2D

 15 16  0  0  0  0  0  0  0  0999 V2000
    3.5260   -1.2990    0.0000 C   0  0  0  0  0  0  0  0  0  0  0  0
    2.7760    0.0000    0.0000 C   0  0  0  0  0  0  0  0  0  0  0  0
    1.2760    0.0000    0.0000 C   0  0  0  0  0  0  0  0  0  0  0  0
    0.3943    1.2135    0.0000 C   0  0  0  0  0  0  0  0  0  0  0  0
    0.8578    2.6401    0.0000 C   0  0  0  0  0  0  0  0  0  0  0  0
    2.3250    2.9520    0.0000 C   0  0  0  0  0  0  0  0  0  0  0  0
    3.4398    1.9483    0.0000 C   0  0  0  0  0  0  0  0  0  0  0  0
    4.7388    2.6983    0.0000 N   0  0  0  0  0  0  0  0  0  0  0  0
    4.4269    4.1655    0.0000 C   0  0  0  0  0  0  0  0  0  0  0  0
    2.9352    4.3223    0.0000 N   0  0  0  0  0  0  0  0  0  0  0  0
    2.1852    5.6213    0.0000 C   0  0  0  0  0  0  0  0  0  0  0  0
   -1.0323    0.7500    0.0000 C   0  0  0  0  0  0  0  0  0  0  0  0
   -1.0323   -0.7500    0.0000 O   0  0  0  0  0  0  0  0  0  0  0  0
    0.3943   -1.2135    0.0000 C   0  0  0  0  0  0  0  0  0  0  0  0
    0.8578   -2.6401    0.0000 O   0  0  0  0  0  0  0  0  0  0  0  0
  1  2  1  0
  3  2  1  6
  3  4  1  0
  4  5  1  6
  5  6  1  0
  6  7  2  0
  7  8  1  0
  8  9  2  0
  9 10  1  0
 10 11  1  0
  4 12  1  0
 12 13  1  0
 13 14  1  0
 14 15  2  0
 14  3  1  0
 10  6  1  0
M  END
$$$$
574221
     RDKit          2D

 30 33  0  0  0  0  0  0  0  0999 V2000
   -3.7500   -3.8971    0.0000 C   0  0  0  0  0  0  0  0  0  0  0  0
   -3.0000   -2.5981    0.0000 C   0  0  0  0  0  0  0  0  0  0  0  0
   -1.5000   -2.5981    0.0000 C   0  0  0  0  0  0  0  0  0  0  0  0
   -0.7500   -3.8971    0.0000 C   0  0  0  0  0  0  0  0  0  0  0  0
   -1.5000   -5.1962    0.0000 O   0  0  0  0  0  0  0  0  0  0  0  0
    0.7500   -3.8971    0.0000 C   0  0  0  0  0  0  0  0  0  0  0  0
    1.5000   -5.1962    0.0000 C   0  0  0  0  0  0  0  0  0  0  0  0
    1.0365   -6.6227    0.0000 C   0  0  0  0  0  0  0  0  0  0  0  0
    2.2500   -7.5044    0.0000 C   0  0  0  0  0  0  0  0  0  0  0  0
    3.4635   -6.6227    0.0000 C   0  0  0  0  0  0  0  0  0  0  0  0
    4.8901   -7.0863    0.0000 C   0  0  0  0  0  0  0  0  0  0  0  0
    5.2020   -8.5535    0.0000 C   0  0  0  0  0  0  0  0  0  0  0  0
    6.0048   -6.0826    0.0000 C   0  0  0  0  0  0  0  0  0  0  0  0
    7.4314   -6.5461    0.0000 C   0  0  0  0  0  0  0  0  0  0  0  0
    8.5461   -5.5424    0.0000 C   0  0  0  0  0  0  0  0  0  0  0  0
    8.2343   -4.0752    0.0000 O   0  0  0  0  0  0  0  0  0  0  0  0
    9.9727   -6.0059    0.0000 O   0  0  0  0  0  0  0  0  0  0  0  0
    3.0000   -5.1962    0.0000 C   0  0  0  0  0  0  0  0  0  0  0  0
    4.4918   -5.3529    0.0000 C   0  0  0  0  0  0  0  0  0  0  0  0
    3.7500   -3.8971    0.0000 C   0  0  0  0  0  0  0  0  0  0  0  0
    3.0000   -2.5981    0.0000 C   0  0  0  0  0  0  0  0  0  0  0  0
    1.5000   -2.5981    0.0000 C   0  0  0  0  0  0  0  0  0  0  0  0
    0.7500   -1.2990    0.0000 C   0  0  0  0  0  0  0  0  0  0  0  0
    2.2500   -1.2990    0.0000 C   0  0  0  0  0  0  0  0  0  0  0  0
    1.5000    0.0000    0.0000 C   0  0  0  0  0  0  0  0  0  0  0  0
    0.7500    1.2990    0.0000 C   0  0  0  0  0  0  0  0  0  0  0  0
   -0.7500    1.2990    0.0000 C   0  0  0  0  0  0  0  0  0  0  0  0
   -1.5000    2.5981    0.0000 O   0  0  0  0  0  0  0  0  0  0  0  0
   -1.5000    0.0000    0.0000 C   0  0  0  0  0  0  0  0  0  0  0  0
   -0.7500   -1.2990    0.0000 C   0  0  0  0  0  0  0  0  0  0  0  0
  1  2  1  0
  3  2  1  6
  3  4  1  0
  4  5  1  6
  6  4  1  6
  6  7  1  0
  7  8  1  1
  8  9  1  0
 10  9  1  1
 10 11  1  0
 11 12  1  1
 11 13  1  0
 13 14  1  0
 14 15  1  0
 15 16  2  0
 15 17  1  0
 10 18  1  0
 18 19  1  1
 18 20  1  0
 20 21  1  0
 22 21  1  1
 22 23  1  0
 23 24  1  1
 23 25  1  0
 25 26  1  0
 26 27  1  0
 27 28  1  6
 27 29  1  0
 30 29  1  6
 30  3  1  0
 22  6  1  0
 18  7  1  0
 30 23  1  0
M  END
$$$$
704780
     RDKit          2D

 72 75  0  0  0  0  0  0  0  0999 V2000
    6.5691   -1.2990    0.0000 C   0  0  0  0  0  0  0  0  0  0  0  0
    5.8191    0.0000    0.0000 C   0  0  0  0  0  0  0  0  0  0  0  0
    4.3191    0.0000    0.0000 C   0  0  0  0  0  0  0  0  0  0  0  0
    4.0586   -1.4772    0.0000 C   0  0  0  0  0  0  0  0  0  0  0  0
    3.3086   -2.7762    0.0000 C   0  0  0  0  0  0  0  0  0  0  0  0
    4.4577   -3.7404    0.0000 C   0  0  0  0  0  0  0  0  0  0  0  0
    2.1595   -3.7404    0.0000 C   0  0  0  0  0  0  0  0  0  0  0  0
    2.9095   -5.0395    0.0000 O   0  0  0  0  0  0  0  0  0  0  0  0
    0.7500   -4.2535    0.0000 C   0  0  0  0  0  0  0  0  0  0  0  0
   -0.7500   -4.2535    0.0000 C   0  0  0  0  0  0  0  0  0  0  0  0
   -2.1595   -3.7404    0.0000 C   0  0  0  0  0  0  0  0  0  0  0  0
   -3.3086   -2.7762    0.0000 C   0  0  0  0  0  0  0  0  0  0  0  0
   -4.0586   -1.4772    0.0000 C   0  0  0  0  0  0  0  0  0  0  0  0
   -5.4681   -1.9902    0.0000 C   0  0  0  0  0  0  0  0  0  0  0  0
   -6.6172   -1.0261    0.0000 O   0  0  0  0  0  0  0  0  0  0  0  0
   -8.0268   -1.5391    0.0000 C   0  0  0  0  0  0  0  0  0  0  0  0
   -9.1758   -0.5749    0.0000 O   0  0  0  0  0  0  0  0  0  0  0  0
  -10.5854   -1.0879    0.0000 C   0  0  0  0  0  0  0  0  0  0  0  0
  -11.7344   -0.1238    0.0000 C   0  0  0  0  0  0  0  0  0  0  0  0
  -10.8458   -2.5652    0.0000 C   0  0  0  0  0  0  0  0  0  0  0  0
  -12.2554   -3.0782    0.0000 O   0  0  0  0  0  0  0  0  0  0  0  0
  -12.5158   -4.5554    0.0000 C   0  0  0  0  0  0  0  0  0  0  0  0
  -11.3668   -5.5196    0.0000 O   0  0  0  0  0  0  0  0  0  0  0  0
  -13.9254   -5.0684    0.0000 C   0  0  0  0  0  0  0  0  0  0  0  0
  -15.0744   -4.1042    0.0000 C   0  0  0  0  0  0  0  0  0  0  0  0
  -14.8140   -2.6270    0.0000 O   0  0  0  0  0  0  0  0  0  0  0  0
  -16.4840   -4.6173    0.0000 C   0  0  0  0  0  0  0  0  0  0  0  0
  -17.6331   -3.6531    0.0000 Cl  0  0  0  0  0  0  0  0  0  0  0  0
  -16.7445   -6.0945    0.0000 C   0  0  0  0  0  0  0  0  0  0  0  0
  -18.1540   -6.6075    0.0000 O   0  0  0  0  0  0  0  0  0  0  0  0
  -15.5954   -7.0587    0.0000 C   0  0  0  0  0  0  0  0  0  0  0  0
  -15.8559   -8.5359    0.0000 Cl  0  0  0  0  0  0  0  0  0  0  0  0
  -14.1859   -6.5456    0.0000 C   0  0  0  0  0  0  0  0  0  0  0  0
  -13.0368   -7.5098    0.0000 C   0  0  0  0  0  0  0  0  0  0  0  0
  -13.2973   -8.9870    0.0000 C   0  0  0  0  0  0  0  0  0  0  0  0
   -9.6968   -3.5293    0.0000 C   0  0  0  0  0  0  0  0  0  0  0  0
   -9.9572   -5.0065    0.0000 O   0  0  0  0  0  0  0  0  0  0  0  0
   -8.2872   -3.0163    0.0000 C   0  0  0  0  0  0  0  0  0  0  0  0
   -7.1382   -3.9805    0.0000 O   0  0  0  0  0  0  0  0  0  0  0  0
   -7.3986   -5.4577    0.0000 C   0  0  0  0  0  0  0  0  0  0  0  0
   -4.3191    0.0000    0.0000 C   0  0  0  0  0  0  0  0  0  0  0  0
   -5.8191    0.0000    0.0000 O   0  0  0  0  0  0  0  0  0  0  0  0
   -4.0586    1.4772    0.0000 O   0  0  0  0  0  0  0  0  0  0  0  0
   -3.3086    2.7762    0.0000 C   0  0  0  0  0  0  0  0  0  0  0  0
   -2.1595    3.7404    0.0000 C   0  0  0  0  0  0  0  0  0  0  0  0
   -0.7500    4.2535    0.0000 C   0  0  0  0  0  0  0  0  0  0  0  0
    0.7500    4.2535    0.0000 C   0  0  0  0  0  0  0  0  0  0  0  0
    1.0105    5.7307    0.0000 C   0  0  0  0  0  0  0  0  0  0  0  0
    2.1595    3.7404    0.0000 C   0  0  0  0  0  0  0  0  0  0  0  0
    3.3086    2.7762    0.0000 C   0  0  0  0  0  0  0  0  0  0  0  0
    4.4577    3.7404    0.0000 C   0  0  0  0  0  0  0  0  0  0  0  0
    4.0586    1.4772    0.0000 C   0  0  0  0  0  0  0  0  0  0  0  0
    5.4681    1.9902    0.0000 O   0  0  0  0  0  0  0  0  0  0  0  0
    6.6172    1.0261    0.0000 C   0  0  0  0  0  0  0  0  0  0  0  0
    8.0268    1.5391    0.0000 O   0  0  0  0  0  0  0  0  0  0  0  0
    9.1758    0.5749    0.0000 C   0  0  0  0  0  0  0  0  0  0  0  0
   10.5854    0.0619    0.0000 C   0  0  0  0  0  0  0  0  0  0  0  0
    9.9258    1.8739    0.0000 C   0  0  0  0  0  0  0  0  0  0  0  0
    8.9153   -0.9023    0.0000 C   0  0  0  0  0  0  0  0  0  0  0  0
   10.0644   -1.8665    0.0000 O   0  0  0  0  0  0  0  0  0  0  0  0
    9.8039   -3.3437    0.0000 C   0  0  0  0  0  0  0  0  0  0  0  0
    8.3944   -3.8567    0.0000 O   0  0  0  0  0  0  0  0  0  0  0  0
   10.9530   -4.3079    0.0000 C   0  0  0  0  0  0  0  0  0  0  0  0
   10.6925   -5.7851    0.0000 C   0  0  0  0  0  0  0  0  0  0  0  0
   12.3625   -3.7948    0.0000 C   0  0  0  0  0  0  0  0  0  0  0  0
    7.5058   -1.4153    0.0000 C   0  0  0  0  0  0  0  0  0  0  0  0
    7.2453   -2.8925    0.0000 O   0  0  0  0  0  0  0  0  0  0  0  0
    6.3567   -0.4512    0.0000 C   0  0  0  0  0  0  0  0  0  0  0  0
    4.9472   -0.9642    0.0000 O   0  0  0  0  0  0  0  0  0  0  0  0
   -4.4577    3.7404    0.0000 C   0  0  0  0  0  0  0  0  0  0  0  0
   -4.1972    5.2176    0.0000 C   0  0  0  0  0  0  0  0  0  0  0  0
   -5.8672    3.2274    0.0000 O   0  0  0  0  0  0  0  0  0  0  0  0
  1  2  1  0
  3  2  1  1
  3  4  1  0
  4  5  2  0
  5  6  1  0
  5  7  1  0
  7  8  1  1
  7  9  1  0
  9 10  1  0
 10 11  2  0
 11 12  1  0
 12 13  2  0
 13 14  1  0
 14 15  1  0
 16 15  1  1
 16 17  1  0
 17 18  1  0
 18 19  1  1
 18 20  1  0
 20 21  1  6
 21 22  1  0
 22 23  2  0
 22 24  1  0
 24 25  2  0
 25 26  1  0
 25 27  1  0
 27 28  1  0
 27 29  2  0
 29 30  1  0
 29 31  1  0
 31 32  1  0
 31 33  2  0
 33 34  1  0
 34 35  1  0
 20 36  1  0
 36 37  1  1
 36 38  1  0
 38 39  1  1
 39 40  1  0
 13 41  1  0
 41 42  2  0
 41 43  1  0
 43 44  1  0
 44 45  1  6
 45 46  1  0
 46 47  2  0
 47 48  1  0
 47 49  1  0
 49 50  2  0
 50 51  1  0
 50 52  1  0
 52 53  1  6
 54 53  1  6
 54 55  1  0
 55 56  1  0
 56 57  1  0
 56 58  1  0
 56 59  1  0
 59 60  1  1
 60 61  1  0
 61 62  2  0
 61 63  1  0
 63 64  1  0
 63 65  1  0
 59 66  1  0
 66 67  1  6
 66 68  1  0
 68 69  1  6
 44 70  1  0
 70 71  1  6
 70 72  1  0
 52  3  1  0
 38 16  1  0
 33 24  1  0
 68 54  1  0
M  END
$$$$
674574
     RDKit          2D

 21 24  0  0  0  0  0  0  0  0999 V2000
   -5.7135   -7.9218    0.0000 C   0  0  0  0  0  0  0  0  0  0  0  0
   -4.2135   -7.9218    0.0000 C   0  0  0  0  0  0  0  0  0  0  0  0
   -3.4635   -6.6227    0.0000 C   0  0  0  0  0  0  0  0  0  0  0  0
   -4.8980   -6.1842    0.0000 O   0  0  0  0  0  0  0  0  0  0  0  0
   -2.2500   -7.5044    0.0000 C   0  0  0  0  0  0  0  0  0  0  0  0
   -1.0365   -6.6227    0.0000 C   0  0  0  0  0  0  0  0  0  0  0  0
   -1.5000   -5.1962    0.0000 C   0  0  0  0  0  0  0  0  0  0  0  0
   -0.7500   -3.8971    0.0000 C   0  0  0  0  0  0  0  0  0  0  0  0
    0.7500   -3.8971    0.0000 C   0  0  0  0  0  0  0  0  0  0  0  0
    1.5000   -2.5981    0.0000 C   0  0  0  0  0  0  0  0  0  0  0  0
    0.7500   -1.2990    0.0000 C   0  0  0  0  0  0  0  0  0  0  0  0
    1.5000    0.0000    0.0000 C   0  0  0  0  0  0  0  0  0  0  0  0
    0.7500    1.2990    0.0000 C   0  0  0  0  0  0  0  0  0  0  0  0
   -0.7500    1.2990    0.0000 C   0  0  0  0  0  0  0  0  0  0  0  0
   -1.5000    0.0000    0.0000 C   0  0  0  0  0  0  0  0  0  0  0  0
   -0.7500   -1.2990    0.0000 C   0  0  0  0  0  0  0  0  0  0  0  0
   -1.5000   -2.5981    0.0000 C   0  0  0  0  0  0  0  0  0  0  0  0
   -3.0000   -2.5981    0.0000 C   0  0  0  0  0  0  0  0  0  0  0  0
   -3.7500   -3.8971    0.0000 C   0  0  0  0  0  0  0  0  0  0  0  0
   -3.0000   -5.1962    0.0000 C   0  0  0  0  0  0  0  0  0  0  0  0
   -4.4998   -5.1699    0.0000 C   0  0  0  0  0  0  0  0  0  0  0  0
  1  2  1  0
  2  3  1  0
  3  4  1  6
  3  5  1  0
  5  6  1  0
  7  6  1  6
  7  8  1  0
  8  9  1  1
  9 10  1  0
 10 11  1  0
 11 12  2  0
 12 13  1  0
 13 14  1  0
 14 15  1  0
 16 15  1  1
 16 17  1  0
 17 18  1  6
 18 19  1  0
 19 20  1  0
 20 21  1  6
 20  3  1  0
 20  7  1  0
 17  8  1  0
 16 11  1  0
M  END
$$$$
429174
     RDKit          2D

 23 26  0  0  0  0  0  0  0  0999 V2000
   -5.3735   -4.1394    0.0000 C   0  0  0  0  0  0  0  0  0  0  0  0
   -4.4918   -5.3529    0.0000 C   0  0  0  0  0  0  0  0  0  0  0  0
   -3.0000   -5.1962    0.0000 C   0  0  0  0  0  0  0  0  0  0  0  0
   -3.7500   -3.8971    0.0000 C   0  0  0  0  0  0  0  0  0  0  0  0
   -3.0000   -2.5981    0.0000 C   0  0  0  0  0  0  0  0  0  0  0  0
   -3.7500   -1.2990    0.0000 C   0  0  0  0  0  0  0  0  0  0  0  0
   -1.5000   -2.5981    0.0000 C   0  0  0  0  0  0  0  0  0  0  0  0
   -0.7500   -3.8971    0.0000 C   0  0  0  0  0  0  0  0  0  0  0  0
    0.7500   -3.8971    0.0000 C   0  0  0  0  0  0  0  0  0  0  0  0
    1.5000   -2.5981    0.0000 C   0  0  0  0  0  0  0  0  0  0  0  0
    0.7500   -1.2990    0.0000 C   0  0  0  0  0  0  0  0  0  0  0  0
    1.5000    0.0000    0.0000 C   0  0  0  0  0  0  0  0  0  0  0  0
    0.7500    1.2990    0.0000 C   0  0  0  0  0  0  0  0  0  0  0  0
   -0.7500    1.2990    0.0000 C   0  0  0  0  0  0  0  0  0  0  0  0
   -1.5000    0.0000    0.0000 C   0  0  0  0  0  0  0  0  0  0  0  0
   -0.7500   -1.2990    0.0000 C   0  0  0  0  0  0  0  0  0  0  0  0
   -1.5000   -5.1962    0.0000 C   0  0  0  0  0  0  0  0  0  0  0  0
   -1.0365   -6.6227    0.0000 C   0  0  0  0  0  0  0  0  0  0  0  0
   -2.2500   -7.5044    0.0000 C   0  0  0  0  0  0  0  0  0  0  0  0
   -3.4635   -6.6227    0.0000 C   0  0  0  0  0  0  0  0  0  0  0  0
   -4.9408   -6.3623    0.0000 O   0  0  0  0  0  0  0  0  0  0  0  0
   -4.2135   -7.9218    0.0000 C   0  0  0  0  0  0  0  0  0  0  0  0
   -4.9635   -9.2208    0.0000 C   0  0  0  0  0  0  0  0  0  0  0  0
  1  2  1  0
  3  2  1  6
  3  4  1  0
  4  5  1  0
  5  6  2  0
  7  5  1  6
  7  8  1  0
  8  9  1  1
  9 10  1  0
 10 11  1  0
 11 12  2  0
 12 13  1  0
 13 14  1  0
 14 15  1  0
 16 15  1  1
  8 17  1  0
 17 18  1  6
 18 19  1  0
 19 20  1  0
 20 21  1  6
 20 22  1  0
 22 23  3  0
 17  3  1  0
 20  3  1  0
 16  7  1  0
 16 11  1  0
M  END
$$$$
1380067
     RDKit          2D

 23 26  0  0  0  0  0  0  0  0999 V2000
   -5.3735   -4.1394    0.0000 C   0  0  0  0  0  0  0  0  0  0  0  0
   -4.4918   -5.3529    0.0000 C   0  0  0  0  0  0  0  0  0  0  0  0
   -3.0000   -5.1962    0.0000 C   0  0  0  0  0  0  0  0  0  0  0  0
   -3.7500   -3.8971    0.0000 C   0  0  0  0  0  0  0  0  0  0  0  0
   -3.0000   -2.5981    0.0000 C   0  0  0  0  0  0  0  0  0  0  0  0
   -1.5000   -2.5981    0.0000 C   0  0  0  0  0  0  0  0  0  0  0  0
   -0.7500   -3.8971    0.0000 C   0  0  0  0  0  0  0  0  0  0  0  0
    0.7500   -3.8971    0.0000 C   0  0  0  0  0  0  0  0  0  0  0  0
    1.5000   -2.5981    0.0000 C   0  0  0  0  0  0  0  0  0  0  0  0
    0.7500   -1.2990    0.0000 C   0  0  0  0  0  0  0  0  0  0  0  0
    1.5000    0.0000    0.0000 C   0  0  0  0  0  0  0  0  0  0  0  0
    0.7500    1.2990    0.0000 C   0  0  0  0  0  0  0  0  0  0  0  0
    1.5000    2.5981    0.0000 O   0  0  0  0  0  0  0  0  0  0  0  0
   -0.7500    1.2990    0.0000 C   0  0  0  0  0  0  0  0  0  0  0  0
   -1.5000    0.0000    0.0000 C   0  0  0  0  0  0  0  0  0  0  0  0
   -0.7500   -1.2990    0.0000 C   0  0  0  0  0  0  0  0  0  0  0  0
   -1.5000   -5.1962    0.0000 C   0  0  0  0  0  0  0  0  0  0  0  0
   -1.0365   -6.6227    0.0000 C   0  0  0  0  0  0  0  0  0  0  0  0
   -2.2500   -7.5044    0.0000 C   0  0  0  0  0  0  0  0  0  0  0  0
   -3.4635   -6.6227    0.0000 C   0  0  0  0  0  0  0  0  0  0  0  0
   -4.9408   -6.3623    0.0000 O   0  0  0  0  0  0  0  0  0  0  0  0
   -4.2135   -7.9218    0.0000 C   0  0  0  0  0  0  0  0  0  0  0  0
   -4.9635   -9.2208    0.0000 C   0  0  0  0  0  0  0  0  0  0  0  0
  1  2  1  0
  3  2  1  6
  3  4  1  0
  4  5  1  0
  6  5  1  6
  6  7  1  0
  7  8  1  1
  8  9  1  0
  9 10  1  0
 10 11  2  0
 11 12  1  0
 12 13  2  0
 12 14  1  0
 14 15  1  0
 16 15  1  1
  7 17  1  0
 17 18  1  6
 18 19  1  0
 19 20  1  0
 20 21  1  0
 20 22  1  0
 22 23  3  0
 17  3  1  0
 20  3  1  0
 16  6  1  0
 16 10  1  0
M  END
$$$$
328164
     RDKit          2D

 23 26  0  0  0  0  0  0  0  0999 V2000
   -5.3735   -4.1394    0.0000 C   0  0  0  0  0  0  0  0  0  0  0  0
   -4.4918   -5.3529    0.0000 C   0  0  0  0  0  0  0  0  0  0  0  0
   -3.0000   -5.1962    0.0000 C   0  0  0  0  0  0  0  0  0  0  0  0
   -3.7500   -3.8971    0.0000 C   0  0  0  0  0  0  0  0  0  0  0  0
   -3.0000   -2.5981    0.0000 C   0  0  0  0  0  0  0  0  0  0  0  0
   -1.5000   -2.5981    0.0000 C   0  0  0  0  0  0  0  0  0  0  0  0
   -0.7500   -3.8971    0.0000 C   0  0  0  0  0  0  0  0  0  0  0  0
    0.7500   -3.8971    0.0000 C   0  0  0  0  0  0  0  0  0  0  0  0
    1.5000   -2.5981    0.0000 C   0  0  0  0  0  0  0  0  0  0  0  0
    0.7500   -1.2990    0.0000 C   0  0  0  0  0  0  0  0  0  0  0  0
    1.5000    0.0000    0.0000 C   0  0  0  0  0  0  0  0  0  0  0  0
    0.7500    1.2990    0.0000 C   0  0  0  0  0  0  0  0  0  0  0  0
    1.5000    2.5981    0.0000 O   0  0  0  0  0  0  0  0  0  0  0  0
   -0.7500    1.2990    0.0000 C   0  0  0  0  0  0  0  0  0  0  0  0
   -1.5000    0.0000    0.0000 C   0  0  0  0  0  0  0  0  0  0  0  0
   -0.7500   -1.2990    0.0000 C   0  0  0  0  0  0  0  0  0  0  0  0
   -1.5000   -5.1962    0.0000 C   0  0  0  0  0  0  0  0  0  0  0  0
   -1.0365   -6.6227    0.0000 C   0  0  0  0  0  0  0  0  0  0  0  0
   -2.2500   -7.5044    0.0000 C   0  0  0  0  0  0  0  0  0  0  0  0
   -3.4635   -6.6227    0.0000 C   0  0  0  0  0  0  0  0  0  0  0  0
   -4.9408   -6.3623    0.0000 O   0  0  0  0  0  0  0  0  0  0  0  0
   -4.2135   -7.9218    0.0000 C   0  0  0  0  0  0  0  0  0  0  0  0
   -4.9635   -9.2208    0.0000 C   0  0  0  0  0  0  0  0  0  0  0  0
  1  2  1  0
  3  2  1  6
  3  4  1  0
  4  5  1  0
  6  5  1  6
  6  7  1  0
  7  8  1  1
  8  9  1  0
  9 10  1  0
 10 11  2  0
 11 12  1  0
 12 13  2  0
 12 14  1  0
 14 15  1  0
 16 15  1  1
  7 17  1  0
 17 18  1  6
 18 19  1  0
 19 20  1  0
 20 21  1  6
 20 22  1  0
 22 23  3  0
 17  3  1  0
 20  3  1  0
 16  6  1  0
 16 10  1  0
M  END
$$$$
674885
     RDKit          2D

 27 30  0  0  0  0  0  0  0  0999 V2000
   -5.3735   -4.1394    0.0000 C   0  0  0  0  0  0  0  0  0  0  0  0
   -4.4918   -5.3529    0.0000 C   0  0  0  0  0  0  0  0  0  0  0  0
   -3.0000   -5.1962    0.0000 C   0  0  0  0  0  0  0  0  0  0  0  0
   -3.7500   -3.8971    0.0000 C   0  0  0  0  0  0  0  0  0  0  0  0
   -3.0000   -2.5981    0.0000 C   0  0  0  0  0  0  0  0  0  0  0  0
   -1.5000   -2.5981    0.0000 C   0  0  0  0  0  0  0  0  0  0  0  0
   -0.7500   -3.8971    0.0000 C   0  0  0  0  0  0  0  0  0  0  0  0
    0.7500   -3.8971    0.0000 C   0  0  0  0  0  0  0  0  0  0  0  0
    1.5000   -2.5981    0.0000 C   0  0  0  0  0  0  0  0  0  0  0  0
    0.7500   -1.2990    0.0000 C   0  0  0  0  0  0  0  0  0  0  0  0
    1.5000    0.0000    0.0000 C   0  0  0  0  0  0  0  0  0  0  0  0
    0.7500    1.2990    0.0000 C   0  0  0  0  0  0  0  0  0  0  0  0
    1.5000    2.5981    0.0000 N   0  0  0  0  0  0  0  0  0  0  0  0
    0.7500    3.8971    0.0000 O   0  0  0  0  0  0  0  0  0  0  0  0
   -0.7500    1.2990    0.0000 C   0  0  0  0  0  0  0  0  0  0  0  0
   -1.5000    0.0000    0.0000 C   0  0  0  0  0  0  0  0  0  0  0  0
   -0.7500   -1.2990    0.0000 C   0  0  0  0  0  0  0  0  0  0  0  0
   -1.5000   -5.1962    0.0000 C   0  0  0  0  0  0  0  0  0  0  0  0
   -1.0365   -6.6227    0.0000 C   0  0  0  0  0  0  0  0  0  0  0  0
   -2.2500   -7.5044    0.0000 C   0  0  0  0  0  0  0  0  0  0  0  0
   -3.4635   -6.6227    0.0000 C   0  0  0  0  0  0  0  0  0  0  0  0
   -4.8338   -6.0126    0.0000 O   0  0  0  0  0  0  0  0  0  0  0  0
   -6.0474   -6.8943    0.0000 C   0  0  0  0  0  0  0  0  0  0  0  0
   -5.8906   -8.3861    0.0000 O   0  0  0  0  0  0  0  0  0  0  0  0
   -7.4177   -6.2842    0.0000 C   0  0  0  0  0  0  0  0  0  0  0  0
   -4.2135   -7.9218    0.0000 C   0  0  0  0  0  0  0  0  0  0  0  0
   -4.9635   -9.2208    0.0000 C   0  0  0  0  0  0  0  0  0  0  0  0
  1  2  1  0
  3  2  1  6
  3  4  1  0
  4  5  1  0
  6  5  1  6
  6  7  1  0
  7  8  1  1
  8  9  1  0
  9 10  1  0
 10 11  2  0
 11 12  1  0
 12 13  2  0
 13 14  1  0
 12 15  1  0
 15 16  1  0
 17 16  1  1
  7 18  1  0
 18 19  1  6
 19 20  1  0
 20 21  1  0
 21 22  1  0
 22 23  1  0
 23 24  2  0
 23 25  1  0
 21 26  1  1
 26 27  3  0
 18  3  1  0
 21  3  1  0
 17  6  1  0
 17 10  1  0
M  END
$$$$
675237
     RDKit          2D

 25 26  0  0  0  0  0  0  0  0999 V2000
   -4.6471   -6.5490    0.0000 C   0  0  0  0  0  0  0  0  0  0  0  0
   -3.1471   -6.5490    0.0000 C   0  0  0  0  0  0  0  0  0  0  0  0
   -2.3971   -7.8481    0.0000 N   0  0  0  0  0  4  0  0  0  0  0  0
   -1.6471   -9.1471    0.0000 C   0  0  0  0  0  0  0  0  0  0  0  0
   -3.6962   -8.5981    0.0000 C   0  0  0  0  0  0  0  0  0  0  0  0
   -4.9952   -7.8481    0.0000 C   0  0  0  0  0  0  0  0  0  0  0  0
   -1.0981   -7.0981    0.0000 C   0  0  0  0  0  0  0  0  0  0  0  0
   -1.0981   -5.5981    0.0000 C   0  0  0  0  0  0  0  0  0  0  0  0
    0.2010   -4.8481    0.0000 O   0  0  0  0  0  0  0  0  0  0  0  0
    0.2010   -3.3481    0.0000 C   0  0  0  0  0  0  0  0  0  0  0  0
   -1.0981   -2.5981    0.0000 O   0  0  0  0  0  0  0  0  0  0  0  0
    1.5000   -2.5981    0.0000 C   0  0  0  0  0  0  0  0  0  0  0  0
    2.7990   -1.8481    0.0000 O   0  0  0  0  0  0  0  0  0  0  0  0
    0.7500   -1.2990    0.0000 C   0  0  0  0  0  0  0  0  0  0  0  0
    1.5000    0.0000    0.0000 C   0  0  0  0  0  0  0  0  0  0  0  0
    0.7500    1.2990    0.0000 C   0  0  0  0  0  0  0  0  0  0  0  0
   -0.7500    1.2990    0.0000 C   0  0  0  0  0  0  0  0  0  0  0  0
   -1.5000    0.0000    0.0000 C   0  0  0  0  0  0  0  0  0  0  0  0
   -0.7500   -1.2990    0.0000 C   0  0  0  0  0  0  0  0  0  0  0  0
    2.2500   -3.8971    0.0000 C   0  0  0  0  0  0  0  0  0  0  0  0
    1.5000   -5.1962    0.0000 C   0  0  0  0  0  0  0  0  0  0  0  0
    2.2500   -6.4952    0.0000 C   0  0  0  0  0  0  0  0  0  0  0  0
    3.7500   -6.4952    0.0000 C   0  0  0  0  0  0  0  0  0  0  0  0
    4.5000   -5.1962    0.0000 C   0  0  0  0  0  0  0  0  0  0  0  0
    3.7500   -3.8971    0.0000 C   0  0  0  0  0  0  0  0  0  0  0  0
  1  2  1  0
  2  3  1  0
  3  4  1  0
  3  5  1  0
  5  6  1  0
  3  7  1  0
  7  8  1  0
  8  9  1  0
  9 10  1  0
 10 11  2  0
 10 12  1  0
 12 13  1  0
 12 14  1  0
 14 15  1  0
 15 16  1  0
 16 17  1  0
 17 18  1  0
 18 19  1  0
 12 20  1  0
 20 21  2  0
 21 22  1  0
 22 23  2  0
 23 24  1  0
 24 25  2  0
 19 14  1  0
 25 20  1  0
M  CHG  1   3   1
M  END
$$$$
675215
     RDKit          2D

 25 27  0  0  0  0  0  0  0  0999 V2000
    8.7990   -2.9462    0.0000 C   0  0  0  0  0  0  0  0  0  0  0  0
    7.5000   -3.6962    0.0000 C   0  0  0  0  0  0  0  0  0  0  0  0
    7.5000   -5.1962    0.0000 N   0  0  0  0  0  4  0  0  0  0  0  0
    7.5000   -6.6962    0.0000 C   0  0  0  0  0  0  0  0  0  0  0  0
    9.0000   -5.1962    0.0000 C   0  0  0  0  0  0  0  0  0  0  0  0
    9.7500   -3.8971    0.0000 C   0  0  0  0  0  0  0  0  0  0  0  0
    6.0000   -5.1962    0.0000 C   0  0  0  0  0  0  0  0  0  0  0  0
    5.2500   -3.8971    0.0000 C   0  0  0  0  0  0  0  0  0  0  0  0
    3.7500   -3.8971    0.0000 O   0  0  0  0  0  0  0  0  0  0  0  0
    3.0000   -2.5981    0.0000 C   0  0  0  0  0  0  0  0  0  0  0  0
    3.7500   -1.2990    0.0000 O   0  0  0  0  0  0  0  0  0  0  0  0
    1.5000   -2.5981    0.0000 C   0  0  0  0  0  0  0  0  0  0  0  0
    0.7500   -1.2990    0.0000 C   0  0  0  0  0  0  0  0  0  0  0  0
    1.5000    0.0000    0.0000 C   0  0  0  0  0  0  0  0  0  0  0  0
    0.7500    1.2990    0.0000 C   0  0  0  0  0  0  0  0  0  0  0  0
   -0.7500    1.2990    0.0000 C   0  0  0  0  0  0  0  0  0  0  0  0
   -1.5000    0.0000    0.0000 C   0  0  0  0  0  0  0  0  0  0  0  0
   -0.7500   -1.2990    0.0000 C   0  0  0  0  0  0  0  0  0  0  0  0
   -1.5000   -2.5981    0.0000 O   0  0  0  0  0  0  0  0  0  0  0  0
   -0.7500   -3.8971    0.0000 C   0  0  0  0  0  0  0  0  0  0  0  0
   -1.5000   -5.1962    0.0000 C   0  0  0  0  0  0  0  0  0  0  0  0
   -0.7500   -6.4952    0.0000 C   0  0  0  0  0  0  0  0  0  0  0  0
    0.7500   -6.4952    0.0000 C   0  0  0  0  0  0  0  0  0  0  0  0
    1.5000   -5.1962    0.0000 C   0  0  0  0  0  0  0  0  0  0  0  0
    0.7500   -3.8971    0.0000 C   0  0  0  0  0  0  0  0  0  0  0  0
  1  2  1  0
  2  3  1  0
  3  4  1  0
  3  5  1  0
  5  6  1  0
  3  7  1  0
  7  8  1  0
  8  9  1  0
  9 10  1  0
 10 11  2  0
 10 12  1  0
 12 13  1  0
 13 14  2  0
 14 15  1  0
 15 16  2  0
 16 17  1  0
 17 18  2  0
 18 19  1  0
 19 20  1  0
 20 21  2  0
 21 22  1  0
 22 23  2  0
 23 24  1  0
 24 25  2  0
 25 12  1  0
 18 13  1  0
 25 20  1  0
M  CHG  1   3   1
M  END
$$$$
675305
     RDKit          2D

 23 24  0  0  0  0  0  0  0  0999 V2000
    7.0981   -5.1962    0.0000 C   0  0  0  0  0  0  0  0  0  0  0  0
    5.7990   -4.4462    0.0000 C   0  0  0  0  0  0  0  0  0  0  0  0
    4.5000   -5.1962    0.0000 N   0  0  0  0  0  4  0  0  0  0  0  0
    3.2010   -5.9462    0.0000 C   0  0  0  0  0  0  0  0  0  0  0  0
    3.2010   -7.4462    0.0000 C   0  0  0  0  0  0  0  0  0  0  0  0
    5.2500   -6.4952    0.0000 C   0  0  0  0  0  0  0  0  0  0  0  0
    4.5000   -7.7942    0.0000 C   0  0  0  0  0  0  0  0  0  0  0  0
    3.7500   -3.8971    0.0000 C   0  0  0  0  0  0  0  0  0  0  0  0
    2.2500   -3.8971    0.0000 C   0  0  0  0  0  0  0  0  0  0  0  0
    1.5000   -2.5981    0.0000 C   0  0  0  0  0  0  0  0  0  0  0  0
    0.2010   -3.3481    0.0000 O   0  0  0  0  0  0  0  0  0  0  0  0
    0.7500   -1.2990    0.0000 C   0  0  0  0  0  0  0  0  0  0  0  0
    1.5000    0.0000    0.0000 C   0  0  0  0  0  0  0  0  0  0  0  0
    0.7500    1.2990    0.0000 C   0  0  0  0  0  0  0  0  0  0  0  0
   -0.7500    1.2990    0.0000 C   0  0  0  0  0  0  0  0  0  0  0  0
   -1.5000    0.0000    0.0000 C   0  0  0  0  0  0  0  0  0  0  0  0
   -0.7500   -1.2990    0.0000 C   0  0  0  0  0  0  0  0  0  0  0  0
    2.7990   -1.8481    0.0000 C   0  0  0  0  0  0  0  0  0  0  0  0
    4.0981   -2.5981    0.0000 C   0  0  0  0  0  0  0  0  0  0  0  0
    5.3971   -1.8481    0.0000 C   0  0  0  0  0  0  0  0  0  0  0  0
    5.3971   -0.3481    0.0000 C   0  0  0  0  0  0  0  0  0  0  0  0
    4.0981    0.4019    0.0000 C   0  0  0  0  0  0  0  0  0  0  0  0
    2.7990   -0.3481    0.0000 C   0  0  0  0  0  0  0  0  0  0  0  0
  1  2  1  0
  2  3  1  0
  3  4  1  0
  4  5  1  0
  3  6  1  0
  6  7  1  0
  3  8  1  0
  8  9  1  0
  9 10  1  0
 10 11  1  0
 10 12  1  0
 12 13  1  0
 13 14  1  0
 14 15  1  0
 15 16  1  0
 16 17  1  0
 10 18  1  0
 18 19  2  0
 19 20  1  0
 20 21  2  0
 21 22  1  0
 22 23  2  0
 17 12  1  0
 23 18  1  0
M  CHG  1   3   1
M  END
$$$$
490064
     RDKit          2D

 36 37  0  0  0  0  0  0  0  0999 V2000
  -10.2990   -8.1423    0.0000 C   0  0  0  0  0  0  0  0  0  0  0  0
  -10.2990   -9.6423    0.0000 C   0  0  0  0  0  0  0  0  0  0  0  0
   -9.0000  -10.3923    0.0000 N   0  0  0  0  0  4  0  0  0  0  0  0
   -7.7010  -11.1423    0.0000 C   0  0  0  0  0  0  0  0  0  0  0  0
   -7.7010  -12.6423    0.0000 C   0  0  0  0  0  0  0  0  0  0  0  0
   -8.2500   -9.0933    0.0000 C   0  0  0  0  0  0  0  0  0  0  0  0
   -6.7500   -9.0933    0.0000 C   0  0  0  0  0  0  0  0  0  0  0  0
   -6.0000   -7.7942    0.0000 N   0  0  0  0  0  0  0  0  0  0  0  0
   -4.5000   -7.7942    0.0000 C   0  0  0  0  0  0  0  0  0  0  0  0
   -3.7500   -9.0933    0.0000 O   0  0  0  0  0  0  0  0  0  0  0  0
   -3.7500   -6.4952    0.0000 C   0  0  0  0  0  0  0  0  0  0  0  0
   -4.5000   -5.1962    0.0000 O   0  0  0  0  0  0  0  0  0  0  0  0
   -2.2500   -6.4952    0.0000 N   0  0  0  0  0  0  0  0  0  0  0  0
   -1.5000   -5.1962    0.0000 C   0  0  0  0  0  0  0  0  0  0  0  0
   -0.0000   -5.1962    0.0000 C   0  0  0  0  0  0  0  0  0  0  0  0
    0.7500   -3.8971    0.0000 N   0  0  0  0  0  4  0  0  0  0  0  0
   -0.5490   -3.1471    0.0000 C   0  0  0  0  0  0  0  0  0  0  0  0
   -1.8481   -3.8971    0.0000 C   0  0  0  0  0  0  0  0  0  0  0  0
    2.0490   -4.6471    0.0000 C   0  0  0  0  0  0  0  0  0  0  0  0
    2.0490   -6.1471    0.0000 C   0  0  0  0  0  0  0  0  0  0  0  0
    1.5000   -2.5981    0.0000 C   0  0  0  0  0  0  0  0  0  0  0  0
    0.7500   -1.2990    0.0000 C   0  0  0  0  0  0  0  0  0  0  0  0
    1.5000    0.0000    0.0000 C   0  0  0  0  0  0  0  0  0  0  0  0
    0.7500    1.2990    0.0000 C   0  0  0  0  0  0  0  0  0  0  0  0
   -0.7500    1.2990    0.0000 C   0  0  0  0  0  0  0  0  0  0  0  0
   -1.5000    0.0000    0.0000 C   0  0  0  0  0  0  0  0  0  0  0  0
   -0.7500   -1.2990    0.0000 C   0  0  0  0  0  0  0  0  0  0  0  0
   -1.5000   -2.5981    0.0000 Cl  0  0  0  0  0  0  0  0  0  0  0  0
   -9.7500  -11.6913    0.0000 C   0  0  0  0  0  0  0  0  0  0  0  0
  -11.2500  -11.6913    0.0000 C   0  0  0  0  0  0  0  0  0  0  0  0
  -12.0000  -10.3923    0.0000 C   0  0  0  0  0  0  0  0  0  0  0  0
  -13.5000  -10.3923    0.0000 C   0  0  0  0  0  0  0  0  0  0  0  0
  -14.2500  -11.6913    0.0000 C   0  0  0  0  0  0  0  0  0  0  0  0
  -13.5000  -12.9904    0.0000 C   0  0  0  0  0  0  0  0  0  0  0  0
  -12.0000  -12.9904    0.0000 C   0  0  0  0  0  0  0  0  0  0  0  0
  -11.2500  -14.2894    0.0000 Cl  0  0  0  0  0  0  0  0  0  0  0  0
  1  2  1  0
  2  3  1  0
  3  4  1  0
  4  5  1  0
  3  6  1  0
  6  7  1  0
  7  8  1  0
  8  9  1  0
  9 10  2  0
  9 11  1  0
 11 12  2  0
 11 13  1  0
 13 14  1  0
 14 15  1  0
 15 16  1  0
 16 17  1  0
 17 18  1  0
 16 19  1  0
 19 20  1  0
 16 21  1  0
 21 22  1  0
 22 23  2  0
 23 24  1  0
 24 25  2  0
 25 26  1  0
 26 27  2  0
 27 28  1  0
  3 29  1  0
 29 30  1  0
 30 31  2  0
 31 32  1  0
 32 33  2  0
 33 34  1  0
 34 35  2  0
 35 36  1  0
 27 22  1  0
 35 30  1  0
M  CHG  2   3   1  16   1
M  END
$$$$
6968
     RDKit          2D

 28 30  0  0  0  0  0  0  0  0999 V2000
   -1.5000   -5.1962    0.0000 C   0  0  0  0  0  0  0  0  0  0  0  0
   -0.7500   -3.8971    0.0000 C   0  0  0  0  0  0  0  0  0  0  0  0
    0.7500   -3.8971    0.0000 C   0  0  0  0  0  0  0  0  0  0  0  0
    1.5000   -2.5981    0.0000 C   0  0  0  0  0  0  0  0  0  0  0  0
    0.7500   -1.2990    0.0000 C   0  0  0  0  0  0  0  0  0  0  0  0
    1.5000    0.0000    0.0000 C   0  0  0  0  0  0  0  0  0  0  0  0
    0.7500    1.2990    0.0000 C   0  0  0  0  0  0  0  0  0  0  0  0
   -0.7500    1.2990    0.0000 C   0  0  0  0  0  0  0  0  0  0  0  0
   -1.5000    0.0000    0.0000 C   0  0  0  0  0  0  0  0  0  0  0  0
   -0.7500   -1.2990    0.0000 C   0  0  0  0  0  0  0  0  0  0  0  0
    3.0000   -2.5981    0.0000 C   0  0  0  0  0  0  0  0  0  0  0  0
    3.7500   -3.8971    0.0000 C   0  0  0  0  0  0  0  0  0  0  0  0
    5.2500   -3.8971    0.0000 C   0  0  0  0  0  0  0  0  0  0  0  0
    6.0000   -2.5981    0.0000 C   0  0  0  0  0  0  0  0  0  0  0  0
    7.5000   -2.5981    0.0000 O   0  0  0  0  0  0  0  0  0  0  0  0
    8.2500   -3.8971    0.0000 C   0  0  0  0  0  0  0  0  0  0  0  0
    9.7500   -3.8971    0.0000 C   0  0  0  0  0  0  0  0  0  0  0  0
   10.5000   -5.1962    0.0000 N   0  0  0  0  0  0  0  0  0  0  0  0
   12.0000   -5.1962    0.0000 C   0  0  0  0  0  0  0  0  0  0  0  0
    9.7500   -6.4952    0.0000 C   0  0  0  0  0  0  0  0  0  0  0  0
    5.2500   -1.2990    0.0000 C   0  0  0  0  0  0  0  0  0  0  0  0
    3.7500   -1.2990    0.0000 C   0  0  0  0  0  0  0  0  0  0  0  0
    1.5000   -5.1962    0.0000 C   0  0  0  0  0  0  0  0  0  0  0  0
    0.7500   -6.4952    0.0000 C   0  0  0  0  0  0  0  0  0  0  0  0
    1.5000   -7.7942    0.0000 C   0  0  0  0  0  0  0  0  0  0  0  0
    3.0000   -7.7942    0.0000 C   0  0  0  0  0  0  0  0  0  0  0  0
    3.7500   -6.4952    0.0000 C   0  0  0  0  0  0  0  0  0  0  0  0
    3.0000   -5.1962    0.0000 C   0  0  0  0  0  0  0  0  0  0  0  0
  1  2  1  0
  2  3  1  0
  3  4  2  0
  4  5  1  0
  5  6  2  0
  6  7  1  0
  7  8  2  0
  8  9  1  0
  9 10  2  0
  4 11  1  0
 11 12  2  0
 12 13  1  0
 13 14  2  0
 14 15  1  0
 15 16  1  0
 16 17  1  0
 17 18  1  0
 18 19  1  0
 18 20  1  0
 14 21  1  0
 21 22  2  0
  3 23  1  0
 23 24  2  0
 24 25  1  0
 25 26  2  0
 26 27  1  0
 27 28  2  0
 10  5  1  0
 22 11  1  0
 28 23  1  0
M  END
$$$$
47340
     RDKit          2D

 41 42  0  0  0  0  0  0  0  0999 V2000
   -1.5000   -5.1962    0.0000 C   0  0  0  0  0  0  0  0  0  0  0  0
   -0.7500   -3.8971    0.0000 C   0  0  0  0  0  0  0  0  0  0  0  0
    0.7500   -3.8971    0.0000 C   0  0  0  0  0  0  0  0  0  0  0  0
    1.5000   -2.5981    0.0000 C   0  0  0  0  0  0  0  0  0  0  0  0
    0.7500   -1.2990    0.0000 C   0  0  0  0  0  0  0  0  0  0  0  0
    1.5000    0.0000    0.0000 C   0  0  0  0  0  0  0  0  0  0  0  0
    0.7500    1.2990    0.0000 C   0  0  0  0  0  0  0  0  0  0  0  0
   -0.7500    1.2990    0.0000 C   0  0  0  0  0  0  0  0  0  0  0  0
   -1.5000    0.0000    0.0000 C   0  0  0  0  0  0  0  0  0  0  0  0
   -0.7500   -1.2990    0.0000 C   0  0  0  0  0  0  0  0  0  0  0  0
    3.0000   -2.5981    0.0000 C   0  0  0  0  0  0  0  0  0  0  0  0
    3.7500   -3.8971    0.0000 C   0  0  0  0  0  0  0  0  0  0  0  0
    5.2500   -3.8971    0.0000 C   0  0  0  0  0  0  0  0  0  0  0  0
    6.0000   -2.5981    0.0000 C   0  0  0  0  0  0  0  0  0  0  0  0
    7.5000   -2.5981    0.0000 O   0  0  0  0  0  0  0  0  0  0  0  0
    8.2500   -3.8971    0.0000 C   0  0  0  0  0  0  0  0  0  0  0  0
    9.7500   -3.8971    0.0000 C   0  0  0  0  0  0  0  0  0  0  0  0
   10.5000   -5.1962    0.0000 N   0  0  0  0  0  0  0  0  0  0  0  0
   12.0000   -5.1962    0.0000 C   0  0  0  0  0  0  0  0  0  0  0  0
    9.7500   -6.4952    0.0000 C   0  0  0  0  0  0  0  0  0  0  0  0
    5.2500   -1.2990    0.0000 C   0  0  0  0  0  0  0  0  0  0  0  0
    3.7500   -1.2990    0.0000 C   0  0  0  0  0  0  0  0  0  0  0  0
    1.5000   -5.1962    0.0000 C   0  0  0  0  0  0  0  0  0  0  0  0
    0.7500   -6.4952    0.0000 C   0  0  0  0  0  0  0  0  0  0  0  0
    1.5000   -7.7942    0.0000 C   0  0  0  0  0  0  0  0  0  0  0  0
    3.0000   -7.7942    0.0000 C   0  0  0  0  0  0  0  0  0  0  0  0
    3.7500   -6.4952    0.0000 C   0  0  0  0  0  0  0  0  0  0  0  0
    3.0000   -5.1962    0.0000 C   0  0  0  0  0  0  0  0  0  0  0  0
   -2.5981    4.1471    0.0000 O   0  0  0  0  0  0  0  0  0  0  0  0
   -1.2990    4.8971    0.0000 C   0  0  0  0  0  0  0  0  0  0  0  0
   -1.2990    6.3971    0.0000 O   0  0  0  0  0  0  0  0  0  0  0  0
    0.0000    4.1471    0.0000 C   0  0  0  0  0  0  0  0  0  0  0  0
    1.2990    4.8971    0.0000 C   0  0  0  0  0  0  0  0  0  0  0  0
    0.5490    6.1962    0.0000 O   0  0  0  0  0  0  0  0  0  0  0  0
    2.5981    5.6471    0.0000 C   0  0  0  0  0  0  0  0  0  0  0  0
    2.5981    7.1471    0.0000 C   0  0  0  0  0  0  0  0  0  0  0  0
    1.2990    7.8971    0.0000 O   0  0  0  0  0  0  0  0  0  0  0  0
    3.8971    7.8971    0.0000 O   0  0  0  0  0  0  0  0  0  0  0  0
    2.0490    3.5981    0.0000 C   0  0  0  0  0  0  0  0  0  0  0  0
    1.2990    2.2990    0.0000 O   0  0  0  0  0  0  0  0  0  0  0  0
    3.5490    3.5981    0.0000 O   0  0  0  0  0  0  0  0  0  0  0  0
  1  2  1  0
  2  3  1  0
  3  4  2  0
  4  5  1  0
  5  6  2  0
  6  7  1  0
  7  8  2  0
  8  9  1  0
  9 10  2  0
  4 11  1  0
 11 12  2  0
 12 13  1  0
 13 14  2  0
 14 15  1  0
 15 16  1  0
 16 17  1  0
 17 18  1  0
 18 19  1  0
 18 20  1  0
 14 21  1  0
 21 22  2  0
  3 23  1  0
 23 24  2  0
 24 25  1  0
 25 26  2  0
 26 27  1  0
 27 28  2  0
 29 30  1  0
 30 31  2  0
 30 32  1  0
 32 33  1  0
 33 34  1  0
 33 35  1  0
 35 36  1  0
 36 37  2  0
 36 38  1  0
 33 39  1  0
 39 40  2  0
 39 41  1  0
 10  5  1  0
 22 11  1  0
 28 23  1  0
M  END
$$$$
860
     RDKit          2D

 20 21  0  0  0  0  0  0  0  0999 V2000
   -1.5000   -5.1962    0.0000 C   0  0  0  0  0  0  0  0  0  0  0  0
   -0.7500   -3.8971    0.0000 C   0  0  0  0  0  0  0  0  0  0  0  0
    0.7500   -3.8971    0.0000 C   0  0  0  0  0  0  0  0  0  0  0  0
    1.5000   -2.5981    0.0000 C   0  0  0  0  0  0  0  0  0  0  0  0
    3.0000   -2.5981    0.0000 C   0  0  0  0  0  0  0  0  0  0  0  0
    3.7500   -3.8971    0.0000 C   0  0  0  0  0  0  0  0  0  0  0  0
    0.7500   -1.2990    0.0000 C   0  0  0  0  0  0  0  0  0  0  0  0
    1.5000    0.0000    0.0000 C   0  0  0  0  0  0  0  0  0  0  0  0
    0.7500    1.2990    0.0000 C   0  0  0  0  0  0  0  0  0  0  0  0
   -0.7500    1.2990    0.0000 C   0  0  0  0  0  0  0  0  0  0  0  0
   -1.5000    2.5981    0.0000 O   0  0  0  0  0  0  0  0  0  0  0  0
   -1.5000    0.0000    0.0000 C   0  0  0  0  0  0  0  0  0  0  0  0
   -0.7500   -1.2990    0.0000 C   0  0  0  0  0  0  0  0  0  0  0  0
    1.5000   -5.1962    0.0000 C   0  0  0  0  0  0  0  0  0  0  0  0
    0.7500   -6.4952    0.0000 C   0  0  0  0  0  0  0  0  0  0  0  0
    1.5000   -7.7942    0.0000 C   0  0  0  0  0  0  0  0  0  0  0  0
    3.0000   -7.7942    0.0000 C   0  0  0  0  0  0  0  0  0  0  0  0
    3.7500   -9.0933    0.0000 O   0  0  0  0  0  0  0  0  0  0  0  0
    3.7500   -6.4952    0.0000 C   0  0  0  0  0  0  0  0  0  0  0  0
    3.0000   -5.1962    0.0000 C   0  0  0  0  0  0  0  0  0  0  0  0
  1  2  1  0
  2  3  1  0
  3  4  2  0
  4  5  1  0
  5  6  1  0
  4  7  1  0
  7  8  2  0
  8  9  1  0
  9 10  2  0
 10 11  1  0
 10 12  1  0
 12 13  2  0
  3 14  1  0
 14 15  2  0
 15 16  1  0
 16 17  2  0
 17 18  1  0
 17 19  1  0
 19 20  2  0
 13  7  1  0
 20 14  1  0
M  END
$$$$
674549
     RDKit          2D

 28 29  0  0  0  0  0  0  0  0999 V2000
   -1.5000   -5.1962    0.0000 C   0  0  0  0  0  0  0  0  0  0  0  0
   -0.7500   -3.8971    0.0000 C   0  0  0  0  0  0  0  0  0  0  0  0
    0.7500   -3.8971    0.0000 C   0  0  0  0  0  0  0  0  0  0  0  0
    1.5000   -2.5981    0.0000 C   0  0  0  0  0  0  0  0  0  0  0  0
    3.0000   -2.5981    0.0000 C   0  0  0  0  0  0  0  0  0  0  0  0
    3.7500   -3.8971    0.0000 C   0  0  0  0  0  0  0  0  0  0  0  0
    0.7500   -1.2990    0.0000 C   0  0  0  0  0  0  0  0  0  0  0  0
    1.5000    0.0000    0.0000 C   0  0  0  0  0  0  0  0  0  0  0  0
    0.7500    1.2990    0.0000 C   0  0  0  0  0  0  0  0  0  0  0  0
   -0.7500    1.2990    0.0000 C   0  0  0  0  0  0  0  0  0  0  0  0
   -1.5000    2.5981    0.0000 O   0  0  0  0  0  0  0  0  0  0  0  0
   -0.7500    3.8971    0.0000 P   0  0  0  0  0  0  0  0  0  0  0  0
   -2.0490    4.6471    0.0000 O   0  0  0  0  0  0  0  0  0  0  0  0
    0.5490    3.1471    0.0000 O   0  0  0  0  0  0  0  0  0  0  0  0
    0.0000    5.1962    0.0000 O   0  0  0  0  0  0  0  0  0  0  0  0
   -1.5000    0.0000    0.0000 C   0  0  0  0  0  0  0  0  0  0  0  0
   -0.7500   -1.2990    0.0000 C   0  0  0  0  0  0  0  0  0  0  0  0
    1.5000   -5.1962    0.0000 C   0  0  0  0  0  0  0  0  0  0  0  0
    0.7500   -6.4952    0.0000 C   0  0  0  0  0  0  0  0  0  0  0  0
    1.5000   -7.7942    0.0000 C   0  0  0  0  0  0  0  0  0  0  0  0
    3.0000   -7.7942    0.0000 C   0  0  0  0  0  0  0  0  0  0  0  0
    3.7500   -9.0933    0.0000 O   0  0  0  0  0  0  0  0  0  0  0  0
    3.0000  -10.3923    0.0000 P   0  0  0  0  0  0  0  0  0  0  0  0
    4.2990  -11.1423    0.0000 O   0  0  0  0  0  0  0  0  0  0  0  0
    1.7010   -9.6423    0.0000 O   0  0  0  0  0  0  0  0  0  0  0  0
    2.2500  -11.6913    0.0000 O   0  0  0  0  0  0  0  0  0  0  0  0
    3.7500   -6.4952    0.0000 C   0  0  0  0  0  0  0  0  0  0  0  0
    3.0000   -5.1962    0.0000 C   0  0  0  0  0  0  0  0  0  0  0  0
  1  2  1  0
  2  3  1  0
  3  4  2  0
  4  5  1  0
  5  6  1  0
  4  7  1  0
  7  8  2  0
  8  9  1  0
  9 10  2  0
 10 11  1  0
 11 12  1  0
 12 13  2  0
 12 14  1  0
 12 15  1  0
 10 16  1  0
 16 17  2  0
  3 18  1  0
 18 19  2  0
 19 20  1  0
 20 21  2  0
 21 22  1  0
 22 23  1  0
 23 24  2  0
 23 25  1  0
 23 26  1  0
 21 27  1  0
 27 28  2  0
 17  7  1  0
 28 18  1  0
M  END
$$$$
596044
     RDKit          2D

 15 16  0  0  0  0  0  0  0  0999 V2000
    0.0000    2.2990    0.0000 Cl  0  0  0  0  0  0  0  0  0  0  0  0
    1.2760    0.0000    0.0000 C   0  0  0  0  0  0  0  0  0  0  0  0
    0.3943    1.2135    0.0000 C   0  0  0  0  0  0  0  0  0  0  0  0
   -1.0323    0.7500    0.0000 N   0  0  0  0  0  0  0  0  0  0  0  0
   -2.4589    1.2135    0.0000 C   0  0  0  0  0  0  0  0  0  0  0  0
   -3.3405    0.0000    0.0000 C   0  0  0  0  0  0  0  0  0  0  0  0
   -2.4589   -1.2135    0.0000 N   0  0  0  0  0  0  0  0  0  0  0  0
   -1.0323   -0.7500    0.0000 C   0  0  0  0  0  0  0  0  0  0  0  0
    0.3943   -1.2135    0.0000 S   0  0  0  0  0  0  0  0  0  0  0  0
   -4.8405    0.0000    0.0000 C   0  0  0  0  0  0  0  0  0  0  0  0
   -5.5905    1.2990    0.0000 C   0  0  0  0  0  0  0  0  0  0  0  0
   -7.0905    1.2990    0.0000 C   0  0  0  0  0  0  0  0  0  0  0  0
   -7.8405    0.0000    0.0000 C   0  0  0  0  0  0  0  0  0  0  0  0
   -7.0905   -1.2990    0.0000 C   0  0  0  0  0  0  0  0  0  0  0  0
   -5.5905   -1.2990    0.0000 C   0  0  0  0  0  0  0  0  0  0  0  0
  2  3  1  0
  3  4  1  0
  4  5  1  0
  5  6  1  0
  6  7  1  0
  7  8  2  0
  8  9  1  0
  6 10  1  1
 10 11  2  0
 11 12  1  0
 12 13  2  0
 13 14  1  0
 14 15  2  0
  9  2  1  0
  8  4  1  0
 15 10  1  0
M  END
$$$$
675724
     RDKit          2D

 27 29  0  0  0  0  0  0  0  0999 V2000
    7.0000    0.0000    0.0000 Cl  0  0  0  0  0  0  0  0  0  0  0  0
   -1.2990   -7.3573    0.0000 C   0  0  0  0  0  0  0  0  0  0  0  0
   -1.2990   -5.8573    0.0000 C   0  0  0  0  0  0  0  0  0  0  0  0
   -2.5981   -5.1073    0.0000 O   0  0  0  0  0  0  0  0  0  0  0  0
   -0.0000   -5.1073    0.0000 O   0  0  0  0  0  0  0  0  0  0  0  0
   -0.0000   -3.6073    0.0000 C   0  0  0  0  0  0  0  0  0  0  0  0
    1.2135   -2.7256    0.0000 C   0  0  0  0  0  0  0  0  0  0  0  0
    0.7500   -1.2990    0.0000 C   0  0  0  0  0  0  0  0  0  0  0  0
    1.5000    0.0000    0.0000 C   0  0  0  0  0  0  0  0  0  0  0  0
    0.7500    1.2990    0.0000 N   0  0  0  0  0  0  0  0  0  0  0  0
   -0.7500    1.2990    0.0000 C   0  0  0  0  0  0  0  0  0  0  0  0
   -1.5000    0.0000    0.0000 C   0  0  0  0  0  0  0  0  0  0  0  0
   -0.7500   -1.2990    0.0000 C   0  0  0  0  0  0  0  0  0  0  0  0
   -1.2135   -2.7256    0.0000 S   0  0  0  0  0  0  0  0  0  0  0  0
    1.5000    2.5981    0.0000 C   0  0  0  0  0  0  0  0  0  0  0  0
    0.7500    3.8971    0.0000 C   0  0  0  0  0  0  0  0  0  0  0  0
   -0.7500    3.8971    0.0000 O   0  0  0  0  0  0  0  0  0  0  0  0
    1.5000    5.1962    0.0000 C   0  0  0  0  0  0  0  0  0  0  0  0
    1.5000    6.6962    0.0000 C   0  0  0  0  0  0  0  0  0  0  0  0
    2.7990    5.9462    0.0000 C   0  0  0  0  0  0  0  0  0  0  0  0
    3.0000    2.5981    0.0000 C   0  0  0  0  0  0  0  0  0  0  0  0
    3.7500    3.8971    0.0000 C   0  0  0  0  0  0  0  0  0  0  0  0
    5.2500    3.8971    0.0000 C   0  0  0  0  0  0  0  0  0  0  0  0
    6.0000    2.5981    0.0000 C   0  0  0  0  0  0  0  0  0  0  0  0
    5.2500    1.2990    0.0000 C   0  0  0  0  0  0  0  0  0  0  0  0
    3.7500    1.2990    0.0000 C   0  0  0  0  0  0  0  0  0  0  0  0
    3.0000   -0.0000    0.0000 F   0  0  0  0  0  0  0  0  0  0  0  0
  2  3  1  0
  3  4  2  0
  3  5  1  0
  5  6  1  0
  6  7  2  0
  7  8  1  0
  8  9  1  0
  9 10  1  0
 10 11  1  0
 11 12  1  0
 12 13  1  0
 13 14  1  0
 10 15  1  0
 15 16  1  0
 16 17  2  0
 16 18  1  0
 18 19  1  0
 19 20  1  0
 15 21  1  0
 21 22  2  0
 22 23  1  0
 23 24  2  0
 24 25  1  0
 25 26  2  0
 26 27  1  0
 14  6  1  0
 13  8  2  0
 20 18  1  0
 26 21  1  0
M  END
$$$$
674569
     RDKit          2D

 38 40  0  0  0  0  0  0  0  0999 V2000
    0.0000    8.0981    0.0000 Cl  0  0  0  0  0  0  0  0  0  0  0  0
    3.0000    1.5000    0.0000 C   0  0  0  0  0  0  0  0  0  0  0  0
    3.0000    0.0000    0.0000 C   0  0  0  0  0  0  0  0  0  0  0  0
    3.0000   -1.5000    0.0000 C   0  0  0  0  0  0  0  0  0  0  0  0
    4.5000    0.0000    0.0000 C   0  0  0  0  0  0  0  0  0  0  0  0
    5.2500   -1.2990    0.0000 O   0  0  0  0  0  0  0  0  0  0  0  0
    5.2500    1.2990    0.0000 O   0  0  0  0  0  0  0  0  0  0  0  0
    1.5000    0.0000    0.0000 C   0  0  0  0  0  0  0  0  0  0  0  0
    0.7500   -1.2990    0.0000 C   0  0  0  0  0  0  0  0  0  0  0  0
   -0.7500   -1.2990    0.0000 C   0  0  0  0  0  0  0  0  0  0  0  0
   -1.5000    0.0000    0.0000 C   0  0  0  0  0  0  0  0  0  0  0  0
   -0.7500    1.2990    0.0000 C   0  0  0  0  0  0  0  0  0  0  0  0
    0.7500    1.2990    0.0000 C   0  0  0  0  0  0  0  0  0  0  0  0
   -3.0000    0.0000    0.0000 C   0  0  0  0  0  0  0  0  0  0  0  0
   -3.7500   -1.2990    0.0000 O   0  0  0  0  0  0  0  0  0  0  0  0
   -3.7500    1.2990    0.0000 C   0  0  0  0  0  0  0  0  0  0  0  0
   -5.2500    1.2990    0.0000 C   0  0  0  0  0  0  0  0  0  0  0  0
   -6.0000    2.5981    0.0000 C   0  0  0  0  0  0  0  0  0  0  0  0
   -7.5000    2.5981    0.0000 N   0  0  0  0  0  0  0  0  0  0  0  0
   -8.2500    3.8971    0.0000 C   0  0  0  0  0  0  0  0  0  0  0  0
   -9.7500    3.8971    0.0000 C   0  0  0  0  0  0  0  0  0  0  0  0
  -10.5000    2.5981    0.0000 C   0  0  0  0  0  0  0  0  0  0  0  0
   -9.7500    1.2990    0.0000 C   0  0  0  0  0  0  0  0  0  0  0  0
   -8.2500    1.2990    0.0000 C   0  0  0  0  0  0  0  0  0  0  0  0
  -12.0000    2.5981    0.0000 C   0  0  0  0  0  0  0  0  0  0  0  0
  -12.0000    1.0981    0.0000 O   0  0  0  0  0  0  0  0  0  0  0  0
  -13.5000    2.5981    0.0000 C   0  0  0  0  0  0  0  0  0  0  0  0
  -14.2500    3.8971    0.0000 C   0  0  0  0  0  0  0  0  0  0  0  0
  -15.7500    3.8971    0.0000 C   0  0  0  0  0  0  0  0  0  0  0  0
  -16.5000    2.5981    0.0000 C   0  0  0  0  0  0  0  0  0  0  0  0
  -15.7500    1.2990    0.0000 C   0  0  0  0  0  0  0  0  0  0  0  0
  -14.2500    1.2990    0.0000 C   0  0  0  0  0  0  0  0  0  0  0  0
  -12.0000    4.0981    0.0000 C   0  0  0  0  0  0  0  0  0  0  0  0
  -10.7010    4.8481    0.0000 C   0  0  0  0  0  0  0  0  0  0  0  0
  -10.7010    6.3481    0.0000 C   0  0  0  0  0  0  0  0  0  0  0  0
  -12.0000    7.0981    0.0000 C   0  0  0  0  0  0  0  0  0  0  0  0
  -13.2990    6.3481    0.0000 C   0  0  0  0  0  0  0  0  0  0  0  0
  -13.2990    4.8481    0.0000 C   0  0  0  0  0  0  0  0  0  0  0  0
  2  3  1  0
  3  4  1  0
  3  5  1  0
  5  6  2  0
  5  7  1  0
  3  8  1  0
  8  9  2  0
  9 10  1  0
 10 11  2  0
 11 12  1  0
 12 13  2  0
 11 14  1  0
 14 15  1  0
 14 16  1  0
 16 17  1  0
 17 18  1  0
 18 19  1  0
 19 20  1  0
 20 21  1  0
 21 22  1  0
 22 23  1  0
 23 24  1  0
 22 25  1  0
 25 26  1  0
 25 27  1  0
 27 28  2  0
 28 29  1  0
 29 30  2  0
 30 31  1  0
 31 32  2  0
 25 33  1  0
 33 34  2  0
 34 35  1  0
 35 36  2  0
 36 37  1  0
 37 38  2  0
 13  8  1  0
 24 19  1  0
 32 27  1  0
 38 33  1  0
M  END
$$$$
674354
     RDKit          2D

 32 34  0  0  0  0  0  0  0  0999 V2000
    0.0000   10.0933    0.0000 Cl  0  0  0  0  0  0  0  0  0  0  0  0
    3.0000   -1.5000    0.0000 C   0  0  0  0  0  0  0  0  0  0  0  0
    3.0000    0.0000    0.0000 C   0  0  0  0  0  0  0  0  0  0  0  0
    3.0000    1.5000    0.0000 C   0  0  0  0  0  0  0  0  0  0  0  0
    4.5000    0.0000    0.0000 C   0  0  0  0  0  0  0  0  0  0  0  0
    1.5000    0.0000    0.0000 C   0  0  0  0  0  0  0  0  0  0  0  0
    0.7500   -1.2990    0.0000 C   0  0  0  0  0  0  0  0  0  0  0  0
   -0.7500   -1.2990    0.0000 C   0  0  0  0  0  0  0  0  0  0  0  0
   -1.5000    0.0000    0.0000 C   0  0  0  0  0  0  0  0  0  0  0  0
   -3.0000    0.0000    0.0000 C   0  0  0  0  0  0  0  0  0  0  0  0
   -3.7500    1.2990    0.0000 N   0  0  0  0  0  0  0  0  0  0  0  0
   -3.0000    2.5981    0.0000 C   0  0  0  0  0  0  0  0  0  0  0  0
   -3.7500    3.8971    0.0000 C   0  0  0  0  0  0  0  0  0  0  0  0
   -5.2500    3.8971    0.0000 N   0  0  0  0  0  0  0  0  0  0  0  0
   -6.0000    2.5981    0.0000 C   0  0  0  0  0  0  0  0  0  0  0  0
   -5.2500    1.2990    0.0000 C   0  0  0  0  0  0  0  0  0  0  0  0
   -6.0000    5.1962    0.0000 C   0  0  0  0  0  0  0  0  0  0  0  0
   -5.2500    6.4952    0.0000 C   0  0  0  0  0  0  0  0  0  0  0  0
   -3.7500    6.4952    0.0000 C   0  0  0  0  0  0  0  0  0  0  0  0
   -3.0000    7.7942    0.0000 C   0  0  0  0  0  0  0  0  0  0  0  0
   -3.7500    9.0933    0.0000 C   0  0  0  0  0  0  0  0  0  0  0  0
   -5.2500    9.0933    0.0000 C   0  0  0  0  0  0  0  0  0  0  0  0
   -6.0000    7.7942    0.0000 C   0  0  0  0  0  0  0  0  0  0  0  0
   -7.5000    5.1962    0.0000 C   0  0  0  0  0  0  0  0  0  0  0  0
   -8.2500    6.4952    0.0000 C   0  0  0  0  0  0  0  0  0  0  0  0
   -9.7500    6.4952    0.0000 C   0  0  0  0  0  0  0  0  0  0  0  0
  -10.5000    5.1962    0.0000 C   0  0  0  0  0  0  0  0  0  0  0  0
  -12.0000    5.1962    0.0000 Cl  0  0  0  0  0  0  0  0  0  0  0  0
   -9.7500    3.8971    0.0000 C   0  0  0  0  0  0  0  0  0  0  0  0
   -8.2500    3.8971    0.0000 C   0  0  0  0  0  0  0  0  0  0  0  0
   -0.7500    1.2990    0.0000 C   0  0  0  0  0  0  0  0  0  0  0  0
    0.7500    1.2990    0.0000 C   0  0  0  0  0  0  0  0  0  0  0  0
  2  3  1  0
  3  4  1  0
  3  5  1  0
  3  6  1  0
  6  7  2  0
  7  8  1  0
  8  9  2  0
  9 10  1  0
 10 11  1  0
 11 12  1  0
 12 13  1  0
 13 14  1  0
 14 15  1  0
 15 16  1  0
 14 17  1  0
 17 18  1  0
 18 19  2  0
 19 20  1  0
 20 21  2  0
 21 22  1  0
 22 23  2  0
 17 24  1  0
 24 25  2  0
 25 26  1  0
 26 27  2  0
 27 28  1  0
 27 29  1  0
 29 30  2  0
  9 31  1  0
 31 32  2  0
 32  6  1  0
 16 11  1  0
 23 18  1  0
 30 24  1  0
M  END
$$$$
674953
     RDKit          2D

 22 22  0  0  0  0  0  0  0  0999 V2000
    0.0000    6.1962    0.0000 Cl  0  0  0  0  0  0  0  0  0  0  0  0
    9.5490   -3.1471    0.0000 C   0  0  0  0  0  0  0  0  0  0  0  0
    8.2500   -3.8971    0.0000 C   0  0  0  0  0  0  0  0  0  0  0  0
    6.9510   -4.6471    0.0000 C   0  0  0  0  0  0  0  0  0  0  0  0
    9.0000   -5.1962    0.0000 C   0  0  0  0  0  0  0  0  0  0  0  0
    7.5000   -2.5981    0.0000 N   0  0  0  0  0  0  0  0  0  0  0  0
    6.0000   -2.5981    0.0000 C   0  0  0  0  0  0  0  0  0  0  0  0
    5.2500   -1.2990    0.0000 C   0  0  0  0  0  0  0  0  0  0  0  0
    6.0000    0.0000    0.0000 O   0  0  0  0  0  0  0  0  0  0  0  0
    3.7500   -1.2990    0.0000 C   0  0  0  0  0  0  0  0  0  0  0  0
    3.0000    0.0000    0.0000 O   0  0  0  0  0  0  0  0  0  0  0  0
    1.5000    0.0000    0.0000 C   0  0  0  0  0  0  0  0  0  0  0  0
    0.7500   -1.2990    0.0000 C   0  0  0  0  0  0  0  0  0  0  0  0
   -0.7500   -1.2990    0.0000 C   0  0  0  0  0  0  0  0  0  0  0  0
   -1.5000    0.0000    0.0000 C   0  0  0  0  0  0  0  0  0  0  0  0
   -0.7500    1.2990    0.0000 C   0  0  0  0  0  0  0  0  0  0  0  0
   -1.5000    2.5981    0.0000 N   0  0  0  0  0  0  0  0  0  0  0  0
   -0.7500    3.8971    0.0000 C   0  0  0  0  0  0  0  0  0  0  0  0
   -1.5000    5.1962    0.0000 O   0  0  0  0  0  0  0  0  0  0  0  0
    0.7500    3.8971    0.0000 C   0  0  0  0  0  0  0  0  0  0  0  0
    1.5000    2.5981    0.0000 C   0  0  0  0  0  0  0  0  0  0  0  0
    0.7500    1.2990    0.0000 C   0  0  0  0  0  0  0  0  0  0  0  0
  2  3  1  0
  3  4  1  0
  3  5  1  0
  3  6  1  0
  6  7  1  0
  7  8  1  0
  8  9  1  0
  8 10  1  0
 10 11  1  0
 11 12  1  0
 12 13  2  0
 13 14  1  0
 14 15  2  0
 15 16  1  0
 16 17  1  0
 17 18  1  0
 18 19  2  0
 18 20  1  0
 20 21  1  0
 21 22  1  0
 22 12  1  0
 22 16  2  0
M  END
$$$$
674546
     RDKit          2D

 13 12  0  0  0  0  0  0  0  0999 V2000
    0.0000    2.2990    0.0000 Cl  0  0  0  0  0  0  0  0  0  0  0  0
    2.4510   -2.0490    0.0000 C   0  0  0  0  0  0  0  0  0  0  0  0
    3.7500   -1.2990    0.0000 C   0  0  0  0  0  0  0  0  0  0  0  0
    5.0490   -0.5490    0.0000 C   0  0  0  0  0  0  0  0  0  0  0  0
    4.5000   -2.5981    0.0000 N   0  0  0  0  0  0  0  0  0  0  0  0
    3.0000    0.0000    0.0000 C   0  0  0  0  0  0  0  0  0  0  0  0
    1.5000    0.0000    0.0000 C   0  0  0  0  0  0  0  0  0  0  0  0
    0.7500   -1.2990    0.0000 C   0  0  0  0  0  0  0  0  0  0  0  0
   -0.7500   -1.2990    0.0000 C   0  0  0  0  0  0  0  0  0  0  0  0
   -1.5000    0.0000    0.0000 C   0  0  0  0  0  0  0  0  0  0  0  0
   -3.0000    0.0000    0.0000 Cl  0  0  0  0  0  0  0  0  0  0  0  0
   -0.7500    1.2990    0.0000 C   0  0  0  0  0  0  0  0  0  0  0  0
    0.7500    1.2990    0.0000 C   0  0  0  0  0  0  0  0  0  0  0  0
  2  3  1  0
  3  4  1  0
  3  5  1  0
  3  6  1  0
  6  7  1  0
  7  8  2  0
  8  9  1  0
  9 10  2  0
 10 11  1  0
 10 12  1  0
 12 13  2  0
 13  7  1  0
M  END
$$$$
674863
     RDKit          2D

 12 11  0  0  0  0  0  0  0  0999 V2000
    0.0000    2.2990    0.0000 Cl  0  0  0  0  0  0  0  0  0  0  0  0
    2.4510   -2.0490    0.0000 C   0  0  0  0  0  0  0  0  0  0  0  0
    3.7500   -1.2990    0.0000 C   0  0  0  0  0  0  0  0  0  0  0  0
    5.0490   -0.5490    0.0000 C   0  0  0  0  0  0  0  0  0  0  0  0
    4.5000   -2.5981    0.0000 N   0  0  0  0  0  0  0  0  0  0  0  0
    3.0000    0.0000    0.0000 C   0  0  0  0  0  0  0  0  0  0  0  0
    1.5000    0.0000    0.0000 C   0  0  0  0  0  0  0  0  0  0  0  0
    0.7500   -1.2990    0.0000 C   0  0  0  0  0  0  0  0  0  0  0  0
   -0.7500   -1.2990    0.0000 C   0  0  0  0  0  0  0  0  0  0  0  0
   -1.5000    0.0000    0.0000 C   0  0  0  0  0  0  0  0  0  0  0  0
   -0.7500    1.2990    0.0000 C   0  0  0  0  0  0  0  0  0  0  0  0
    0.7500    1.2990    0.0000 C   0  0  0  0  0  0  0  0  0  0  0  0
  2  3  1  0
  3  4  1  0
  3  5  1  0
  3  6  1  0
  6  7  1  0
  7  8  2  0
  8  9  1  0
  9 10  2  0
 10 11  1  0
 11 12  2  0
 12  7  1  0
M  END
$$$$
674716
     RDKit          2D

 20 20  0  0  0  0  0  0  0  0999 V2000
    6.3971    0.0000    0.0000 Cl  0  0  0  0  0  0  0  0  0  0  0  0
    4.0981    1.9019    0.0000 C   0  0  0  0  0  0  0  0  0  0  0  0
    4.0981    0.4019    0.0000 C   0  0  0  0  0  0  0  0  0  0  0  0
    5.3971   -0.3481    0.0000 C   0  0  0  0  0  0  0  0  0  0  0  0
    2.7990   -0.3481    0.0000 C   0  0  0  0  0  0  0  0  0  0  0  0
    2.7990   -1.8481    0.0000 C   0  0  0  0  0  0  0  0  0  0  0  0
    4.0981   -2.5981    0.0000 N   0  0  0  0  0  0  0  0  0  0  0  0
    5.3971   -1.8481    0.0000 C   0  0  0  0  0  0  0  0  0  0  0  0
    4.0981   -4.0981    0.0000 C   0  0  0  0  0  0  0  0  0  0  0  0
    1.5000   -2.5981    0.0000 C   0  0  0  0  0  0  0  0  0  0  0  0
    0.2010   -3.3481    0.0000 C   0  0  0  0  0  0  0  0  0  0  0  0
    0.9510   -4.6471    0.0000 C   0  0  0  0  0  0  0  0  0  0  0  0
    2.2500   -3.8971    0.0000 C   0  0  0  0  0  0  0  0  0  0  0  0
    0.7500   -1.2990    0.0000 C   0  0  0  0  0  0  0  0  0  0  0  0
   -0.7500   -1.2990    0.0000 C   0  0  0  0  0  0  0  0  0  0  0  0
   -1.5000   -0.0000    0.0000 C   0  0  0  0  0  0  0  0  0  0  0  0
   -0.7500    1.2990    0.0000 C   0  0  0  0  0  0  0  0  0  0  0  0
   -1.5000    2.5981    0.0000 Cl  0  0  0  0  0  0  0  0  0  0  0  0
    0.7500    1.2990    0.0000 C   0  0  0  0  0  0  0  0  0  0  0  0
    1.5000   -0.0000    0.0000 C   0  0  0  0  0  0  0  0  0  0  0  0
  2  3  1  0
  3  4  1  0
  3  5  1  0
  5  6  1  0
  6  7  1  0
  7  8  1  0
  7  9  1  0
  6 10  1  0
 10 11  1  0
 11 12  1  0
 12 13  1  0
 10 14  1  0
 14 15  2  0
 15 16  1  0
 16 17  2  0
 17 18  1  0
 17 19  1  0
 19 20  2  0
 13 10  1  0
 20 14  1  0
M  END
$$$$
675010
     RDKit          2D

 18 17  0  0  0  0  0  0  0  0999 V2000
    0.0000    2.2990    0.0000 Cl  0  0  0  0  0  0  0  0  0  0  0  0
    9.7500   -3.8971    0.0000 C   0  0  0  0  0  0  0  0  0  0  0  0
    8.2500   -3.8971    0.0000 C   0  0  0  0  0  0  0  0  0  0  0  0
    7.5000   -5.1962    0.0000 C   0  0  0  0  0  0  0  0  0  0  0  0
    7.5000   -2.5981    0.0000 N   0  0  0  0  0  0  0  0  0  0  0  0
    6.0000   -2.5981    0.0000 C   0  0  0  0  0  0  0  0  0  0  0  0
    5.2500   -3.8971    0.0000 N   0  0  0  0  0  0  0  0  0  0  0  0
    5.2500   -1.2990    0.0000 N   0  0  0  0  0  0  0  0  0  0  0  0
    3.7500   -1.2990    0.0000 C   0  0  0  0  0  0  0  0  0  0  0  0
    3.0000   -2.5981    0.0000 N   0  0  0  0  0  0  0  0  0  0  0  0
    3.0000    0.0000    0.0000 N   0  0  0  0  0  0  0  0  0  0  0  0
    1.5000    0.0000    0.0000 C   0  0  0  0  0  0  0  0  0  0  0  0
    0.7500   -1.2990    0.0000 C   0  0  0  0  0  0  0  0  0  0  0  0
   -0.7500   -1.2990    0.0000 C   0  0  0  0  0  0  0  0  0  0  0  0
   -1.5000    0.0000    0.0000 C   0  0  0  0  0  0  0  0  0  0  0  0
   -3.0000    0.0000    0.0000 Cl  0  0  0  0  0  0  0  0  0  0  0  0
   -0.7500    1.2990    0.0000 C   0  0  0  0  0  0  0  0  0  0  0  0
    0.7500    1.2990    0.0000 C   0  0  0  0  0  0  0  0  0  0  0  0
  2  3  1  0
  3  4  1  0
  3  5  1  0
  5  6  1  0
  6  7  2  0
  6  8  1  0
  8  9  1  0
  9 10  2  0
  9 11  1  0
 11 12  1  0
 12 13  2  0
 13 14  1  0
 14 15  2  0
 15 16  1  0
 15 17  1  0
 17 18  2  0
 18 12  1  0
M  END
$$$$
546564
     RDKit          2D

 19 18  0  0  0  0  0  0  0  0999 V2000
    0.0000    3.5981    0.0000 Cl  0  0  0  0  0  0  0  0  0  0  0  0
    7.5000   -2.5981    0.0000 C   0  0  0  0  0  0  0  0  0  0  0  0
    6.0000   -2.5981    0.0000 C   0  0  0  0  0  0  0  0  0  0  0  0
    5.2500   -3.8971    0.0000 C   0  0  0  0  0  0  0  0  0  0  0  0
    5.2500   -1.2990    0.0000 N   0  0  0  0  0  0  0  0  0  0  0  0
    3.7500   -1.2990    0.0000 C   0  0  0  0  0  0  0  0  0  0  0  0
    3.0000    0.0000    0.0000 C   0  0  0  0  0  0  0  0  0  0  0  0
    3.7500    1.2990    0.0000 O   0  0  0  0  0  0  0  0  0  0  0  0
    1.5000    0.0000    0.0000 C   0  0  0  0  0  0  0  0  0  0  0  0
    0.7500   -1.2990    0.0000 C   0  0  0  0  0  0  0  0  0  0  0  0
   -0.7500   -1.2990    0.0000 C   0  0  0  0  0  0  0  0  0  0  0  0
   -1.5000    0.0000    0.0000 C   0  0  0  0  0  0  0  0  0  0  0  0
   -3.0000    0.0000    0.0000 N   0  0  0  0  0  0  0  0  0  0  0  0
   -3.7500    1.2990    0.0000 S   0  0  0  0  0  0  0  0  0  0  0  0
   -2.4510    2.0490    0.0000 O   0  0  0  0  0  0  0  0  0  0  0  0
   -5.0490    0.5490    0.0000 O   0  0  0  0  0  0  0  0  0  0  0  0
   -4.5000    2.5981    0.0000 C   0  0  0  0  0  0  0  0  0  0  0  0
   -0.7500    1.2990    0.0000 C   0  0  0  0  0  0  0  0  0  0  0  0
    0.7500    1.2990    0.0000 C   0  0  0  0  0  0  0  0  0  0  0  0
  2  3  1  0
  3  4  1  0
  3  5  1  0
  5  6  1  0
  6  7  1  0
  7  8  1  0
  7  9  1  0
  9 10  2  0
 10 11  1  0
 11 12  2  0
 12 13  1  0
 13 14  1  0
 14 15  2  0
 14 16  2  0
 14 17  1  0
 12 18  1  0
 18 19  2  0
 19  9  1  0
M  END
$$$$
543228
     RDKit          2D

 23 23  0  0  0  0  0  0  0  0999 V2000
    0.0000    4.3481    0.0000 Cl  0  0  0  0  0  0  0  0  0  0  0  0
    9.7500   -3.8971    0.0000 C   0  0  0  0  0  0  0  0  0  0  0  0
    8.2500   -3.8971    0.0000 C   0  0  0  0  0  0  0  0  0  0  0  0
    7.5000   -5.1962    0.0000 C   0  0  0  0  0  0  0  0  0  0  0  0
    7.5000   -2.5981    0.0000 N   0  0  0  0  0  0  0  0  0  0  0  0
    6.0000   -2.5981    0.0000 C   0  0  0  0  0  0  0  0  0  0  0  0
    5.2500   -1.2990    0.0000 C   0  0  0  0  0  0  0  0  0  0  0  0
    6.0000    0.0000    0.0000 O   0  0  0  0  0  0  0  0  0  0  0  0
    3.7500   -1.2990    0.0000 C   0  0  0  0  0  0  0  0  0  0  0  0
    3.0000    0.0000    0.0000 O   0  0  0  0  0  0  0  0  0  0  0  0
    1.5000    0.0000    0.0000 C   0  0  0  0  0  0  0  0  0  0  0  0
    0.7500   -1.2990    0.0000 C   0  0  0  0  0  0  0  0  0  0  0  0
   -0.7500   -1.2990    0.0000 C   0  0  0  0  0  0  0  0  0  0  0  0
   -1.5000    0.0000    0.0000 C   0  0  0  0  0  0  0  0  0  0  0  0
   -3.0000    0.0000    0.0000 C   0  0  0  0  0  0  0  0  0  0  0  0
   -3.7500    1.2990    0.0000 C   0  0  0  0  0  0  0  0  0  0  0  0
   -5.2500    1.2990    0.0000 O   0  0  0  0  0  0  0  0  0  0  0  0
   -6.0000    2.5981    0.0000 C   0  0  0  0  0  0  0  0  0  0  0  0
   -7.5000    2.5981    0.0000 C   0  0  0  0  0  0  0  0  0  0  0  0
   -8.7990    1.8481    0.0000 C   0  0  0  0  0  0  0  0  0  0  0  0
   -8.7990    3.3481    0.0000 C   0  0  0  0  0  0  0  0  0  0  0  0
   -0.7500    1.2990    0.0000 C   0  0  0  0  0  0  0  0  0  0  0  0
    0.7500    1.2990    0.0000 C   0  0  0  0  0  0  0  0  0  0  0  0
  2  3  1  0
  3  4  1  0
  3  5  1  0
  5  6  1  0
  6  7  1  0
  7  8  1  0
  7  9  1  0
  9 10  1  0
 10 11  1  0
 11 12  2  0
 12 13  1  0
 13 14  2  0
 14 15  1  0
 15 16  1  0
 16 17  1  0
 17 18  1  0
 18 19  1  0
 19 20  1  0
 20 21  1  0
 14 22  1  0
 22 23  2  0
 23 11  1  0
 21 19  1  0
M  END
$$$$
505776
     RDKit          2D

 20 20  0  0  0  0  0  0  0  0999 V2000
    0.0000    2.2990    0.0000 Cl  0  0  0  0  0  0  0  0  0  0  0  0
   -9.7500   -6.4952    0.0000 C   0  0  0  0  0  0  0  0  0  0  0  0
   -8.2500   -6.4952    0.0000 C   0  0  0  0  0  0  0  0  0  0  0  0
   -7.5000   -7.7942    0.0000 C   0  0  0  0  0  0  0  0  0  0  0  0
   -7.5000   -5.1962    0.0000 N   0  0  0  0  0  0  0  0  0  0  0  0
   -6.0000   -5.1962    0.0000 C   0  0  0  0  0  0  0  0  0  0  0  0
   -5.2500   -3.8971    0.0000 C   0  0  0  0  0  0  0  0  0  0  0  0
   -6.0000   -2.5981    0.0000 O   0  0  0  0  0  0  0  0  0  0  0  0
   -3.7500   -3.8971    0.0000 C   0  0  0  0  0  0  0  0  0  0  0  0
   -3.0000   -2.5981    0.0000 O   0  0  0  0  0  0  0  0  0  0  0  0
   -1.5000   -2.5981    0.0000 C   0  0  0  0  0  0  0  0  0  0  0  0
   -0.7500   -3.8971    0.0000 C   0  0  0  0  0  0  0  0  0  0  0  0
    0.7500   -3.8971    0.0000 C   0  0  0  0  0  0  0  0  0  0  0  0
    1.5000   -2.5981    0.0000 C   0  0  0  0  0  0  0  0  0  0  0  0
    0.7500   -1.2990    0.0000 C   0  0  0  0  0  0  0  0  0  0  0  0
    1.5000    0.0000    0.0000 C   0  0  0  0  0  0  0  0  0  0  0  0
    0.7500    1.2990    0.0000 C   0  0  0  0  0  0  0  0  0  0  0  0
   -0.7500    1.2990    0.0000 C   0  0  0  0  0  0  0  0  0  0  0  0
   -1.5000    0.0000    0.0000 C   0  0  0  0  0  0  0  0  0  0  0  0
   -0.7500   -1.2990    0.0000 C   0  0  0  0  0  0  0  0  0  0  0  0
  2  3  1  0
  3  4  1  0
  3  5  1  0
  5  6  1  0
  6  7  1  0
  7  8  1  0
  7  9  1  0
  9 10  1  0
 10 11  1  0
 11 12  2  0
 12 13  1  0
 13 14  2  0
 14 15  1  0
 15 16  2  0
 16 17  1  0
 17 18  2  0
 18 19  1  0
 19 20  2  0
 20 11  1  0
 20 15  1  0
M  END
$$$$
674696
     RDKit          2D

 20 19  0  0  0  0  0  0  0  0999 V2000
    0.0000    4.8971    0.0000 Cl  0  0  0  0  0  0  0  0  0  0  0  0
    9.7500   -3.8971    0.0000 C   0  0  0  0  0  0  0  0  0  0  0  0
    8.2500   -3.8971    0.0000 C   0  0  0  0  0  0  0  0  0  0  0  0
    7.5000   -5.1962    0.0000 C   0  0  0  0  0  0  0  0  0  0  0  0
    7.5000   -2.5981    0.0000 N   0  0  0  0  0  0  0  0  0  0  0  0
    6.0000   -2.5981    0.0000 C   0  0  0  0  0  0  0  0  0  0  0  0
    5.2500   -1.2990    0.0000 C   0  0  0  0  0  0  0  0  0  0  0  0
    6.0000    0.0000    0.0000 O   0  0  0  0  0  0  0  0  0  0  0  0
    3.7500   -1.2990    0.0000 C   0  0  0  0  0  0  0  0  0  0  0  0
    3.0000    0.0000    0.0000 O   0  0  0  0  0  0  0  0  0  0  0  0
    1.5000    0.0000    0.0000 C   0  0  0  0  0  0  0  0  0  0  0  0
    0.7500   -1.2990    0.0000 C   0  0  0  0  0  0  0  0  0  0  0  0
   -0.7500   -1.2990    0.0000 C   0  0  0  0  0  0  0  0  0  0  0  0
   -1.5000    0.0000    0.0000 C   0  0  0  0  0  0  0  0  0  0  0  0
   -0.7500    1.2990    0.0000 C   0  0  0  0  0  0  0  0  0  0  0  0
    0.7500    1.2990    0.0000 C   0  0  0  0  0  0  0  0  0  0  0  0
    1.5000    2.5981    0.0000 O   0  0  0  0  0  0  0  0  0  0  0  0
    3.0000    2.5981    0.0000 C   0  0  0  0  0  0  0  0  0  0  0  0
    3.7500    3.8971    0.0000 C   0  0  0  0  0  0  0  0  0  0  0  0
    5.2500    3.8971    0.0000 C   0  0  0  0  0  0  0  0  0  0  0  0
  2  3  1  0
  3  4  1  0
  3  5  1  0
  5  6  1  0
  6  7  1  0
  7  8  1  0
  7  9  1  0
  9 10  1  0
 10 11  1  0
 11 12  2  0
 12 13  1  0
 13 14  2  0
 14 15  1  0
 15 16  2  0
 16 17  1  0
 17 18  1  0
 18 19  1  0
 19 20  2  0
 16 11  1  0
M  END
$$$$
674292
     RDKit          2D

 24 25  0  0  0  0  0  0  0  0999 V2000
    0.0000    2.2990    0.0000 Cl  0  0  0  0  0  0  0  0  0  0  0  0
    8.9651   -3.5403    0.0000 C   0  0  0  0  0  0  0  0  0  0  0  0
    7.7515   -2.6587    0.0000 C   0  0  0  0  0  0  0  0  0  0  0  0
    7.9083   -1.1669    0.0000 C   0  0  0  0  0  0  0  0  0  0  0  0
    6.3812   -3.2688    0.0000 N   0  0  0  0  0  0  0  0  0  0  0  0
    5.1677   -2.3871    0.0000 C   0  0  0  0  0  0  0  0  0  0  0  0
    3.7974   -2.9972    0.0000 C   0  0  0  0  0  0  0  0  0  0  0  0
    2.5838   -2.1155    0.0000 C   0  0  0  0  0  0  0  0  0  0  0  0
    1.2135   -2.7256    0.0000 C   0  0  0  0  0  0  0  0  0  0  0  0
    1.9635   -4.0247    0.0000 C   0  0  0  0  0  0  0  0  0  0  0  0
    1.2135   -5.3237    0.0000 O   0  0  0  0  0  0  0  0  0  0  0  0
    3.4635   -4.0247    0.0000 N   0  0  0  0  0  0  0  0  0  0  0  0
    0.7500   -1.2990    0.0000 C   0  0  0  0  0  0  0  0  0  0  0  0
    1.5000    0.0000    0.0000 C   0  0  0  0  0  0  0  0  0  0  0  0
    0.7500    1.2990    0.0000 C   0  0  0  0  0  0  0  0  0  0  0  0
   -0.7500    1.2990    0.0000 C   0  0  0  0  0  0  0  0  0  0  0  0
   -1.5000    0.0000    0.0000 C   0  0  0  0  0  0  0  0  0  0  0  0
   -0.7500   -1.2990    0.0000 C   0  0  0  0  0  0  0  0  0  0  0  0
   -1.2135   -2.7256    0.0000 C   0  0  0  0  0  0  0  0  0  0  0  0
   -2.5838   -3.3357    0.0000 C   0  0  0  0  0  0  0  0  0  0  0  0
   -2.7406   -4.8275    0.0000 C   0  0  0  0  0  0  0  0  0  0  0  0
   -1.5271   -5.7092    0.0000 C   0  0  0  0  0  0  0  0  0  0  0  0
   -0.1568   -5.0991    0.0000 C   0  0  0  0  0  0  0  0  0  0  0  0
   -0.0000   -3.6073    0.0000 C   0  0  0  0  0  0  0  0  0  0  0  0
  2  3  1  0
  3  4  1  0
  3  5  1  0
  5  6  1  0
  6  7  1  0
  7  8  1  0
  8  9  1  0
  9 10  1  0
 10 11  2  0
 10 12  1  0
  9 13  1  0
 13 14  2  0
 14 15  1  0
 15 16  2  0
 16 17  1  0
 17 18  2  0
 18 19  1  0
 19 20  2  0
 20 21  1  0
 21 22  2  0
 22 23  1  0
 23 24  2  0
 24  9  1  0
 18 13  1  0
 24 19  1  0
M  END
$$$$
674405
     RDKit          2D

 26 26  0  0  0  0  0  0  0  0999 V2000
    0.0000    3.5981    0.0000 Cl  0  0  0  0  0  0  0  0  0  0  0  0
   11.7760   -2.5981    0.0000 C   0  0  0  0  0  0  0  0  0  0  0  0
   10.2760   -2.5981    0.0000 C   0  0  0  0  0  0  0  0  0  0  0  0
    9.5260   -3.8971    0.0000 C   0  0  0  0  0  0  0  0  0  0  0  0
    9.5260   -1.2990    0.0000 C   0  0  0  0  0  0  0  0  0  0  0  0
   10.2760    0.0000    0.0000 N   0  0  0  0  0  0  0  0  0  0  0  0
    8.0260   -1.2990    0.0000 C   0  0  0  0  0  0  0  0  0  0  0  0
    7.2760   -2.5981    0.0000 O   0  0  0  0  0  0  0  0  0  0  0  0
    7.2760   -0.0000    0.0000 O   0  0  0  0  0  0  0  0  0  0  0  0
    5.7760   -0.0000    0.0000 C   0  0  0  0  0  0  0  0  0  0  0  0
    5.0260    1.2990    0.0000 C   0  0  0  0  0  0  0  0  0  0  0  0
    5.7760    2.5981    0.0000 C   0  0  0  0  0  0  0  0  0  0  0  0
    7.2760    2.5981    0.0000 O   0  0  0  0  0  0  0  0  0  0  0  0
    3.5260    1.2990    0.0000 O   0  0  0  0  0  0  0  0  0  0  0  0
    2.7760    0.0000    0.0000 C   0  0  0  0  0  0  0  0  0  0  0  0
    1.2760    0.0000    0.0000 N   0  0  0  0  0  0  0  0  0  0  0  0
    0.3943    1.2135    0.0000 C   0  0  0  0  0  0  0  0  0  0  0  0
   -1.0323    0.7500    0.0000 N   0  0  0  0  0  0  0  0  0  0  0  0
   -1.0323   -0.7500    0.0000 C   0  0  0  0  0  0  0  0  0  0  0  0
   -2.1470   -1.7537    0.0000 C   0  0  0  0  0  0  0  0  0  0  0  0
   -3.5736   -1.2902    0.0000 O   0  0  0  0  0  0  0  0  0  0  0  0
   -1.8351   -3.2209    0.0000 N   0  0  0  0  0  0  0  0  0  0  0  0
   -0.4086   -3.6844    0.0000 C   0  0  0  0  0  0  0  0  0  0  0  0
   -0.0967   -5.1517    0.0000 N   0  0  0  0  0  0  0  0  0  0  0  0
    0.7062   -2.6807    0.0000 N   0  0  0  0  0  0  0  0  0  0  0  0
    0.3943   -1.2135    0.0000 C   0  0  0  0  0  0  0  0  0  0  0  0
  2  3  1  0
  3  4  1  0
  3  5  1  0
  5  6  1  1
  5  7  1  0
  7  8  2  0
  7  9  1  0
  9 10  1  0
 10 11  1  0
 11 12  1  0
 12 13  1  0
 11 14  1  0
 14 15  1  0
 15 16  1  0
 16 17  1  0
 17 18  2  0
 18 19  1  0
 19 20  1  0
 20 21  2  0
 20 22  1  0
 22 23  2  0
 23 24  1  0
 23 25  1  0
 25 26  1  0
 26 16  1  0
 26 19  2  0
M  END
$$$$
675061
     RDKit          2D

 24 24  0  0  0  0  0  0  0  0999 V2000
    0.0000    7.4952    0.0000 Cl  0  0  0  0  0  0  0  0  0  0  0  0
   11.7760    5.1962    0.0000 C   0  0  0  0  0  0  0  0  0  0  0  0
   10.2760    5.1962    0.0000 C   0  0  0  0  0  0  0  0  0  0  0  0
    9.5260    6.4952    0.0000 C   0  0  0  0  0  0  0  0  0  0  0  0
    9.5260    3.8971    0.0000 C   0  0  0  0  0  0  0  0  0  0  0  0
   10.2760    2.5981    0.0000 N   0  0  0  0  0  0  0  0  0  0  0  0
    8.0260    3.8971    0.0000 C   0  0  0  0  0  0  0  0  0  0  0  0
    7.2760    5.1962    0.0000 O   0  0  0  0  0  0  0  0  0  0  0  0
    7.2760    2.5981    0.0000 O   0  0  0  0  0  0  0  0  0  0  0  0
    5.7760    2.5981    0.0000 C   0  0  0  0  0  0  0  0  0  0  0  0
    5.0260    1.2990    0.0000 C   0  0  0  0  0  0  0  0  0  0  0  0
    3.5260    1.2990    0.0000 O   0  0  0  0  0  0  0  0  0  0  0  0
    2.7760    0.0000    0.0000 C   0  0  0  0  0  0  0  0  0  0  0  0
    1.2760    0.0000    0.0000 N   0  0  0  0  0  0  0  0  0  0  0  0
    0.3943    1.2135    0.0000 C   0  0  0  0  0  0  0  0  0  0  0  0
   -1.0323    0.7500    0.0000 N   0  0  0  0  0  0  0  0  0  0  0  0
   -1.0323   -0.7500    0.0000 C   0  0  0  0  0  0  0  0  0  0  0  0
   -2.1470   -1.7537    0.0000 C   0  0  0  0  0  0  0  0  0  0  0  0
   -3.5736   -1.2902    0.0000 O   0  0  0  0  0  0  0  0  0  0  0  0
   -1.8351   -3.2209    0.0000 N   0  0  0  0  0  0  0  0  0  0  0  0
   -0.4086   -3.6844    0.0000 C   0  0  0  0  0  0  0  0  0  0  0  0
   -0.0967   -5.1517    0.0000 N   0  0  0  0  0  0  0  0  0  0  0  0
    0.7062   -2.6807    0.0000 N   0  0  0  0  0  0  0  0  0  0  0  0
    0.3943   -1.2135    0.0000 C   0  0  0  0  0  0  0  0  0  0  0  0
  2  3  1  0
  3  4  1  0
  3  5  1  0
  5  6  1  6
  5  7  1  0
  7  8  2  0
  7  9  1  0
  9 10  1  0
 10 11  1  0
 11 12  1  0
 12 13  1  0
 13 14  1  0
 14 15  1  0
 15 16  2  0
 16 17  1  0
 17 18  1  0
 18 19  2  0
 18 20  1  0
 20 21  2  0
 21 22  1  0
 21 23  1  0
 23 24  1  0
 24 14  1  0
 24 17  2  0
M  END
$$$$
674844
     RDKit          2D

 25 26  0  0  0  0  0  0  0  0999 V2000
    3.5774    0.0000    0.0000 Cl  0  0  0  0  0  0  0  0  0  0  0  0
   -3.7527    6.6955    0.0000 C   0  0  0  0  0  0  0  0  0  0  0  0
   -2.6380    5.6918    0.0000 C   0  0  0  0  0  0  0  0  0  0  0  0
   -2.9499    4.2246    0.0000 C   0  0  0  0  0  0  0  0  0  0  0  0
   -1.8351    3.2209    0.0000 C   0  0  0  0  0  0  0  0  0  0  0  0
   -0.4086    3.6844    0.0000 C   0  0  0  0  0  0  0  0  0  0  0  0
    0.7062    2.6807    0.0000 C   0  0  0  0  0  0  0  0  0  0  0  0
    0.3943    1.2135    0.0000 C   0  0  0  0  0  0  0  0  0  0  0  0
    1.2760    0.0000    0.0000 O   0  0  0  0  0  0  0  0  0  0  0  0
    0.3943   -1.2135    0.0000 C   0  0  0  0  0  0  0  0  0  0  0  0
   -1.0323   -0.7500    0.0000 O   0  0  0  0  0  0  0  0  0  0  0  0
   -1.0323    0.7500    0.0000 C   0  0  0  0  0  0  0  0  0  0  0  0
   -2.1470    1.7537    0.0000 C   0  0  0  0  0  0  0  0  0  0  0  0
   -1.2114    6.1554    0.0000 N   0  0  0  0  0  0  0  0  0  0  0  0
   -0.8995    7.6226    0.0000 C   0  0  0  0  0  0  0  0  0  0  0  0
    0.5271    8.0861    0.0000 C   0  0  0  0  0  0  0  0  0  0  0  0
    1.6418    7.0824    0.0000 O   0  0  0  0  0  0  0  0  0  0  0  0
    0.8389    9.5533    0.0000 C   0  0  0  0  0  0  0  0  0  0  0  0
    2.2655   10.0169    0.0000 C   0  0  0  0  0  0  0  0  0  0  0  0
    2.5774   11.4841    0.0000 C   0  0  0  0  0  0  0  0  0  0  0  0
    1.4627   12.4878    0.0000 C   0  0  0  0  0  0  0  0  0  0  0  0
    1.7745   13.9550    0.0000 O   0  0  0  0  0  0  0  0  0  0  0  0
    0.0361   12.0242    0.0000 C   0  0  0  0  0  0  0  0  0  0  0  0
   -1.0786   13.0279    0.0000 O   0  0  0  0  0  0  0  0  0  0  0  0
   -0.2758   10.5570    0.0000 C   0  0  0  0  0  0  0  0  0  0  0  0
  2  3  1  0
  3  4  1  0
  4  5  1  0
  5  6  2  0
  6  7  1  0
  7  8  2  0
  8  9  1  0
  9 10  1  0
 10 11  1  0
 11 12  1  0
 12 13  2  0
  3 14  1  0
 14 15  1  0
 15 16  1  0
 16 17  1  0
 16 18  1  0
 18 19  2  0
 19 20  1  0
 20 21  2  0
 21 22  1  0
 21 23  1  0
 23 24  1  0
 23 25  2  0
 13  5  1  0
 12  8  1  0
 25 18  1  0
M  END
$$$$
674274
     RDKit          2D

 25 25  0  0  0  0  0  0  0  0999 V2000
   11.5000    0.0000    0.0000 Cl  0  0  0  0  0  0  0  0  0  0  0  0
    0.7500   -6.4952    0.0000 C   0  0  0  0  0  0  0  0  0  0  0  0
    1.5000   -5.1962    0.0000 C   0  0  0  0  0  0  0  0  0  0  0  0
    0.7500   -3.8971    0.0000 C   0  0  0  0  0  0  0  0  0  0  0  0
    1.5000   -2.5981    0.0000 C   0  0  0  0  0  0  0  0  0  0  0  0
    0.7500   -1.2990    0.0000 C   0  0  0  0  0  0  0  0  0  0  0  0
    1.5000    0.0000    0.0000 C   0  0  0  0  0  0  0  0  0  0  0  0
    0.7500    1.2990    0.0000 C   0  0  0  0  0  0  0  0  0  0  0  0
   -0.7500    1.2990    0.0000 C   0  0  0  0  0  0  0  0  0  0  0  0
   -1.5000    0.0000    0.0000 C   0  0  0  0  0  0  0  0  0  0  0  0
   -0.7500   -1.2990    0.0000 C   0  0  0  0  0  0  0  0  0  0  0  0
    3.0000   -5.1962    0.0000 N   0  0  0  0  0  0  0  0  0  0  0  0
    3.7500   -6.4952    0.0000 C   0  0  0  0  0  0  0  0  0  0  0  0
    5.2500   -6.4952    0.0000 C   0  0  0  0  0  0  0  0  0  0  0  0
    6.0000   -5.1962    0.0000 O   0  0  0  0  0  0  0  0  0  0  0  0
    6.0000   -7.7942    0.0000 C   0  0  0  0  0  0  0  0  0  0  0  0
    5.2500   -9.0933    0.0000 C   0  0  0  0  0  0  0  0  0  0  0  0
    6.0000  -10.3923    0.0000 C   0  0  0  0  0  0  0  0  0  0  0  0
    7.5000  -10.3923    0.0000 C   0  0  0  0  0  0  0  0  0  0  0  0
    8.2500  -11.6913    0.0000 O   0  0  0  0  0  0  0  0  0  0  0  0
    8.2500   -9.0933    0.0000 C   0  0  0  0  0  0  0  0  0  0  0  0
    7.5000   -7.7942    0.0000 C   0  0  0  0  0  0  0  0  0  0  0  0
    9.7500   -9.0933    0.0000 C   0  0  0  0  0  0  0  0  0  0  0  0
   10.5000  -10.3923    0.0000 O   0  0  0  0  0  0  0  0  0  0  0  0
   10.5000   -7.7942    0.0000 N   0  0  0  0  0  0  0  0  0  0  0  0
  2  3  1  0
  3  4  1  0
  4  5  1  0
  5  6  1  0
  6  7  2  0
  7  8  1  0
  8  9  2  0
  9 10  1  0
 10 11  2  0
  3 12  1  0
 12 13  1  0
 13 14  1  0
 14 15  1  0
 14 16  1  0
 16 17  2  0
 17 18  1  0
 18 19  2  0
 19 20  1  0
 19 21  1  0
 21 22  2  0
 21 23  1  0
 23 24  2  0
 23 25  1  0
 11  6  1  0
 22 16  1  0
M  END
$$$$
674701
     RDKit          2D

 21 22  0  0  0  0  0  0  0  0999 V2000
    7.0000    0.0000    0.0000 Cl  0  0  0  0  0  0  0  0  0  0  0  0
    3.0000   -5.1962    0.0000 C   0  0  0  0  0  0  0  0  0  0  0  0
    3.7500   -3.8971    0.0000 C   0  0  0  0  0  0  0  0  0  0  0  0
    3.0000   -2.5981    0.0000 C   0  0  0  0  0  0  0  0  0  0  0  0
    1.5000   -2.5981    0.0000 N   0  0  0  0  0  0  0  0  0  0  0  0
    0.7500   -1.2990    0.0000 C   0  0  0  0  0  0  0  0  0  0  0  0
    1.5000    0.0000    0.0000 C   0  0  0  0  0  0  0  0  0  0  0  0
    0.7500    1.2990    0.0000 C   0  0  0  0  0  0  0  0  0  0  0  0
   -0.7500    1.2990    0.0000 C   0  0  0  0  0  0  0  0  0  0  0  0
   -1.5000    0.0000    0.0000 C   0  0  0  0  0  0  0  0  0  0  0  0
   -0.7500   -1.2990    0.0000 C   0  0  0  0  0  0  0  0  0  0  0  0
   -1.5000   -2.5981    0.0000 S   0  0  0  0  0  0  0  0  0  0  0  0
   -0.7500   -3.8971    0.0000 C   0  0  0  0  0  0  0  0  0  0  0  0
   -1.5000   -5.1962    0.0000 C   0  0  0  0  0  0  0  0  0  0  0  0
   -0.7500   -6.4952    0.0000 C   0  0  0  0  0  0  0  0  0  0  0  0
    0.7500   -6.4952    0.0000 C   0  0  0  0  0  0  0  0  0  0  0  0
    1.5000   -5.1962    0.0000 C   0  0  0  0  0  0  0  0  0  0  0  0
    0.7500   -3.8971    0.0000 C   0  0  0  0  0  0  0  0  0  0  0  0
    5.2500   -3.8971    0.0000 N   0  0  0  0  0  0  0  0  0  0  0  0
    6.0000   -5.1962    0.0000 C   0  0  0  0  0  0  0  0  0  0  0  0
    6.0000   -2.5981    0.0000 C   0  0  0  0  0  0  0  0  0  0  0  0
  2  3  1  0
  3  4  1  0
  4  5  1  0
  5  6  1  0
  6  7  2  0
  7  8  1  0
  8  9  2  0
  9 10  1  0
 10 11  2  0
 11 12  1  0
 12 13  1  0
 13 14  2  0
 14 15  1  0
 15 16  2  0
 16 17  1  0
 17 18  2  0
  3 19  1  0
 19 20  1  0
 19 21  1  0
 18  5  1  0
 11  6  1  0
 18 13  1  0
M  END
$$$$
674738
     RDKit          2D

 22 22  0  0  0  0  0  0  0  0999 V2000
    0.0000    2.2990    0.0000 Cl  0  0  0  0  0  0  0  0  0  0  0  0
    0.7500   -6.4952    0.0000 C   0  0  0  0  0  0  0  0  0  0  0  0
    1.5000   -5.1962    0.0000 C   0  0  0  0  0  0  0  0  0  0  0  0
    0.7500   -3.8971    0.0000 C   0  0  0  0  0  0  0  0  0  0  0  0
    1.5000   -2.5981    0.0000 O   0  0  0  0  0  0  0  0  0  0  0  0
    0.7500   -1.2990    0.0000 C   0  0  0  0  0  0  0  0  0  0  0  0
    1.5000    0.0000    0.0000 C   0  0  0  0  0  0  0  0  0  0  0  0
    0.7500    1.2990    0.0000 C   0  0  0  0  0  0  0  0  0  0  0  0
   -0.7500    1.2990    0.0000 C   0  0  0  0  0  0  0  0  0  0  0  0
   -1.5000    0.0000    0.0000 C   0  0  0  0  0  0  0  0  0  0  0  0
   -0.7500   -1.2990    0.0000 C   0  0  0  0  0  0  0  0  0  0  0  0
    3.0000   -5.1962    0.0000 N   0  0  0  0  0  0  0  0  0  0  0  0
    3.7500   -3.8971    0.0000 C   0  0  0  0  0  0  0  0  0  0  0  0
    5.2500   -3.8971    0.0000 C   0  0  0  0  0  0  0  0  0  0  0  0
    6.0000   -2.5981    0.0000 Cl  0  0  0  0  0  0  0  0  0  0  0  0
    3.7500   -6.4952    0.0000 C   0  0  0  0  0  0  0  0  0  0  0  0
    5.2500   -6.4952    0.0000 C   0  0  0  0  0  0  0  0  0  0  0  0
    6.0000   -7.7942    0.0000 C   0  0  0  0  0  0  0  0  0  0  0  0
    7.5000   -7.7942    0.0000 C   0  0  0  0  0  0  0  0  0  0  0  0
    8.2500   -6.4952    0.0000 C   0  0  0  0  0  0  0  0  0  0  0  0
    7.5000   -5.1962    0.0000 C   0  0  0  0  0  0  0  0  0  0  0  0
    6.0000   -5.1962    0.0000 C   0  0  0  0  0  0  0  0  0  0  0  0
  2  3  1  0
  3  4  1  0
  4  5  1  0
  5  6  1  0
  6  7  2  0
  7  8  1  0
  8  9  2  0
  9 10  1  0
 10 11  2  0
  3 12  1  0
 12 13  1  0
 13 14  1  0
 14 15  1  0
 12 16  1  0
 16 17  1  0
 17 18  2  0
 18 19  1  0
 19 20  2  0
 20 21  1  0
 21 22  2  0
 11  6  1  0
 22 17  1  0
M  END
$$$$
674724
     RDKit          2D

 15 14  0  0  0  0  0  0  0  0999 V2000
    0.0000    3.5981    0.0000 Cl  0  0  0  0  0  0  0  0  0  0  0  0
    6.0000   -2.5981    0.0000 C   0  0  0  0  0  0  0  0  0  0  0  0
    5.2500   -1.2990    0.0000 C   0  0  0  0  0  0  0  0  0  0  0  0
    6.0000    0.0000    0.0000 N   0  0  0  0  0  0  0  0  0  0  0  0
    3.7500   -1.2990    0.0000 C   0  0  0  0  0  0  0  0  0  0  0  0
    3.0000   -2.5981    0.0000 O   0  0  0  0  0  0  0  0  0  0  0  0
    3.0000    0.0000    0.0000 N   0  0  0  0  0  0  0  0  0  0  0  0
    1.5000    0.0000    0.0000 C   0  0  0  0  0  0  0  0  0  0  0  0
    0.7500   -1.2990    0.0000 C   0  0  0  0  0  0  0  0  0  0  0  0
    1.5000   -2.5981    0.0000 C   0  0  0  0  0  0  0  0  0  0  0  0
   -0.7500   -1.2990    0.0000 C   0  0  0  0  0  0  0  0  0  0  0  0
   -1.5000    0.0000    0.0000 C   0  0  0  0  0  0  0  0  0  0  0  0
   -0.7500    1.2990    0.0000 C   0  0  0  0  0  0  0  0  0  0  0  0
    0.7500    1.2990    0.0000 C   0  0  0  0  0  0  0  0  0  0  0  0
    1.5000    2.5981    0.0000 C   0  0  0  0  0  0  0  0  0  0  0  0
  2  3  1  0
  3  4  1  0
  3  5  1  0
  5  6  2  0
  5  7  1  0
  7  8  1  0
  8  9  2  0
  9 10  1  0
  9 11  1  0
 11 12  2  0
 12 13  1  0
 13 14  2  0
 14 15  1  0
 14  8  1  0
M  END
$$$$
674646
     RDKit          2D

 12 11  0  0  0  0  0  0  0  0999 V2000
    0.0000    2.2990    0.0000 Cl  0  0  0  0  0  0  0  0  0  0  0  0
    5.2500   -1.2990    0.0000 C   0  0  0  0  0  0  0  0  0  0  0  0
    3.7500   -1.2990    0.0000 C   0  0  0  0  0  0  0  0  0  0  0  0
    3.0000   -2.5981    0.0000 N   0  0  0  0  0  0  0  0  0  0  0  0
    3.0000    0.0000    0.0000 C   0  0  0  0  0  0  0  0  0  0  0  0
    3.7500    1.2990    0.0000 O   0  0  0  0  0  0  0  0  0  0  0  0
    1.5000    0.0000    0.0000 C   0  0  0  0  0  0  0  0  0  0  0  0
    0.7500   -1.2990    0.0000 C   0  0  0  0  0  0  0  0  0  0  0  0
   -0.7500   -1.2990    0.0000 C   0  0  0  0  0  0  0  0  0  0  0  0
   -1.5000    0.0000    0.0000 C   0  0  0  0  0  0  0  0  0  0  0  0
   -0.7500    1.2990    0.0000 C   0  0  0  0  0  0  0  0  0  0  0  0
    0.7500    1.2990    0.0000 C   0  0  0  0  0  0  0  0  0  0  0  0
  2  3  1  0
  3  4  1  0
  3  5  1  0
  5  6  1  0
  5  7  1  0
  7  8  2  0
  8  9  1  0
  9 10  2  0
 10 11  1  0
 11 12  2  0
 12  7  1  0
M  END
$$$$
549674
     RDKit          2D

 14 15  0  0  0  0  0  0  0  0999 V2000
    4.0000    0.0000    0.0000 Cl  0  0  0  0  0  0  0  0  0  0  0  0
    0.7500   -3.8971    0.0000 C   0  0  0  0  0  0  0  0  0  0  0  0
    1.5000   -2.5981    0.0000 C   0  0  0  0  0  0  0  0  0  0  0  0
    3.0000   -2.5981    0.0000 N   0  0  0  0  0  0  0  0  0  0  0  0
    0.7500   -1.2990    0.0000 C   0  0  0  0  0  0  0  0  0  0  0  0
    1.5000    0.0000    0.0000 C   0  0  0  0  0  0  0  0  0  0  0  0
    0.7500    1.2990    0.0000 C   0  0  0  0  0  0  0  0  0  0  0  0
   -0.7500    1.2990    0.0000 C   0  0  0  0  0  0  0  0  0  0  0  0
   -1.5000    0.0000    0.0000 C   0  0  0  0  0  0  0  0  0  0  0  0
    1.7010   -0.7500    0.0000 C   0  0  0  0  0  0  0  0  0  0  0  0
    3.0000   -0.0000    0.0000 C   0  0  0  0  0  0  0  0  0  0  0  0
    2.2500    1.2990    0.0000 C   0  0  0  0  0  0  0  0  0  0  0  0
    2.2500   -1.2990    0.0000 C   0  0  0  0  0  0  0  0  0  0  0  0
   -0.7500   -1.2990    0.0000 C   0  0  0  0  0  0  0  0  0  0  0  0
  2  3  1  0
  3  4  1  0
  3  5  1  0
  5  6  1  0
  6  7  1  0
  7  8  1  0
  8  9  1  0
  9 10  1  0
 10 11  1  0
 11 12  1  0
 11 13  1  0
  9 14  1  0
 13  5  1  0
 14  5  1  0
 12  7  1  0
M  END
$$$$
674557
     RDKit          2D

 14 13  0  0  0  0  0  0  0  0999 V2000
    0.0000    3.5981    0.0000 Cl  0  0  0  0  0  0  0  0  0  0  0  0
    6.0000   -2.5981    0.0000 C   0  0  0  0  0  0  0  0  0  0  0  0
    5.2500   -1.2990    0.0000 C   0  0  0  0  0  0  0  0  0  0  0  0
    6.0000    0.0000    0.0000 N   0  0  0  0  0  0  0  0  0  0  0  0
    3.7500   -1.2990    0.0000 C   0  0  0  0  0  0  0  0  0  0  0  0
    3.0000    0.0000    0.0000 O   0  0  0  0  0  0  0  0  0  0  0  0
    1.5000    0.0000    0.0000 C   0  0  0  0  0  0  0  0  0  0  0  0
    0.7500   -1.2990    0.0000 C   0  0  0  0  0  0  0  0  0  0  0  0
    1.5000   -2.5981    0.0000 C   0  0  0  0  0  0  0  0  0  0  0  0
   -0.7500   -1.2990    0.0000 C   0  0  0  0  0  0  0  0  0  0  0  0
   -1.5000    0.0000    0.0000 C   0  0  0  0  0  0  0  0  0  0  0  0
   -0.7500    1.2990    0.0000 C   0  0  0  0  0  0  0  0  0  0  0  0
    0.7500    1.2990    0.0000 C   0  0  0  0  0  0  0  0  0  0  0  0
    1.5000    2.5981    0.0000 C   0  0  0  0  0  0  0  0  0  0  0  0
  2  3  1  0
  3  4  1  0
  3  5  1  0
  5  6  1  0
  6  7  1  0
  7  8  2  0
  8  9  1  0
  8 10  1  0
 10 11  2  0
 11 12  1  0
 12 13  2  0
 13 14  1  0
 13  7  1  0
M  END
$$$$
545956
     RDKit          2D

 17 16  0  0  0  0  0  0  0  0999 V2000
    6.2500    0.0000    0.0000 Cl  0  0  0  0  0  0  0  0  0  0  0  0
    5.2500   -1.2990    0.0000 C   0  0  0  0  0  0  0  0  0  0  0  0
    3.7500   -1.2990    0.0000 C   0  0  0  0  0  0  0  0  0  0  0  0
    3.0000   -2.5981    0.0000 N   0  0  0  0  0  0  0  0  0  0  0  0
    3.7500   -3.8971    0.0000 C   0  0  0  0  0  0  0  0  0  0  0  0
    2.4510   -4.6471    0.0000 C   0  0  0  0  0  0  0  0  0  0  0  0
    5.0490   -3.1471    0.0000 C   0  0  0  0  0  0  0  0  0  0  0  0
    4.5000   -5.1962    0.0000 C   0  0  0  0  0  0  0  0  0  0  0  0
    3.0000    0.0000    0.0000 C   0  0  0  0  0  0  0  0  0  0  0  0
    3.7500    1.2990    0.0000 O   0  0  0  0  0  0  0  0  0  0  0  0
    1.5000    0.0000    0.0000 C   0  0  0  0  0  0  0  0  0  0  0  0
    0.7500   -1.2990    0.0000 C   0  0  0  0  0  0  0  0  0  0  0  0
   -0.7500   -1.2990    0.0000 C   0  0  0  0  0  0  0  0  0  0  0  0
   -1.5000    0.0000    0.0000 C   0  0  0  0  0  0  0  0  0  0  0  0
   -0.7500    1.2990    0.0000 C   0  0  0  0  0  0  0  0  0  0  0  0
   -1.5000    2.5981    0.0000 Cl  0  0  0  0  0  0  0  0  0  0  0  0
    0.7500    1.2990    0.0000 C   0  0  0  0  0  0  0  0  0  0  0  0
  2  3  1  0
  3  4  1  0
  4  5  1  0
  5  6  1  0
  5  7  1  0
  5  8  1  0
  3  9  1  0
  9 10  2  0
  9 11  1  0
 11 12  2  0
 12 13  1  0
 13 14  2  0
 14 15  1  0
 15 16  1  0
 15 17  2  0
 17 11  1  0
M  END
$$$$
545974
     RDKit          2D

 14 15  0  0  0  0  0  0  0  0999 V2000
    0.0000    2.2990    0.0000 Cl  0  0  0  0  0  0  0  0  0  0  0  0
    1.5000   -2.5981    0.0000 C   0  0  0  0  0  0  0  0  0  0  0  0
    0.7500   -1.2990    0.0000 C   0  0  0  0  0  0  0  0  0  0  0  0
    1.5000    0.0000    0.0000 C   0  0  0  0  0  0  0  0  0  0  0  0
    0.7500    1.2990    0.0000 C   0  0  0  0  0  0  0  0  0  0  0  0
   -0.7500    1.2990    0.0000 C   0  0  0  0  0  0  0  0  0  0  0  0
   -1.5000    0.0000    0.0000 C   0  0  0  0  0  0  0  0  0  0  0  0
   -3.0000    0.0000    0.0000 C   0  0  0  0  0  0  0  0  0  0  0  0
   -0.7500   -1.2990    0.0000 C   0  0  0  0  0  0  0  0  0  0  0  0
    1.7010   -0.7500    0.0000 C   0  0  0  0  0  0  0  0  0  0  0  0
    3.0000   -0.0000    0.0000 C   0  0  0  0  0  0  0  0  0  0  0  0
    4.5000   -0.0000    0.0000 N   0  0  0  0  0  0  0  0  0  0  0  0
    2.2500    1.2990    0.0000 C   0  0  0  0  0  0  0  0  0  0  0  0
    2.2500   -1.2990    0.0000 C   0  0  0  0  0  0  0  0  0  0  0  0
  2  3  1  0
  3  4  1  0
  4  5  1  0
  5  6  1  0
  6  7  1  0
  7  8  1  0
  7  9  1  0
  7 10  1  0
 10 11  1  0
 11 12  1  0
 11 13  1  0
 11 14  1  0
  9  3  1  0
 14  3  1  0
 13  5  1  0
M  END
$$$$
674826
     RDKit          2D

 30 32  0  0  0  0  0  0  0  0999 V2000
    0.0000    2.2990    0.0000 Cl  0  0  0  0  0  0  0  0  0  0  0  0
   -5.2500   -1.2990    0.0000 C   0  0  0  0  0  0  0  0  0  0  0  0
   -3.7500   -1.2990    0.0000 C   0  0  0  0  0  0  0  0  0  0  0  0
   -3.0000   -2.5981    0.0000 C   0  0  0  0  0  0  0  0  0  0  0  0
   -1.5000   -2.5981    0.0000 O   0  0  0  0  0  0  0  0  0  0  0  0
   -0.7500   -1.2990    0.0000 C   0  0  0  0  0  0  0  0  0  0  0  0
    0.7500   -1.2990    0.0000 C   0  0  0  0  0  0  0  0  0  0  0  0
    1.5000    0.0000    0.0000 C   0  0  0  0  0  0  0  0  0  0  0  0
    0.7500    1.2990    0.0000 C   0  0  0  0  0  0  0  0  0  0  0  0
   -0.7500    1.2990    0.0000 C   0  0  0  0  0  0  0  0  0  0  0  0
   -1.5000    0.0000    0.0000 C   0  0  0  0  0  0  0  0  0  0  0  0
   -3.0000    0.0000    0.0000 C   0  0  0  0  0  0  0  0  0  0  0  0
   -3.7500    1.2990    0.0000 O   0  0  0  0  0  0  0  0  0  0  0  0
    1.5000   -2.5981    0.0000 C   0  0  0  0  0  0  0  0  0  0  0  0
    0.7500   -3.8971    0.0000 O   0  0  0  0  0  0  0  0  0  0  0  0
    3.0000   -2.5981    0.0000 O   0  0  0  0  0  0  0  0  0  0  0  0
    3.7500   -3.8971    0.0000 C   0  0  0  0  0  0  0  0  0  0  0  0
    5.2500   -3.8971    0.0000 C   0  0  0  0  0  0  0  0  0  0  0  0
    6.0000   -5.1962    0.0000 N   0  0  0  0  0  0  0  0  0  0  0  0
    5.2500   -6.4952    0.0000 C   0  0  0  0  0  0  0  0  0  0  0  0
    6.0000   -7.7942    0.0000 C   0  0  0  0  0  0  0  0  0  0  0  0
    7.5000   -7.7942    0.0000 C   0  0  0  0  0  0  0  0  0  0  0  0
    8.2500   -6.4952    0.0000 C   0  0  0  0  0  0  0  0  0  0  0  0
    7.5000   -5.1962    0.0000 C   0  0  0  0  0  0  0  0  0  0  0  0
   -3.7500   -3.8971    0.0000 C   0  0  0  0  0  0  0  0  0  0  0  0
   -5.2500   -3.8971    0.0000 C   0  0  0  0  0  0  0  0  0  0  0  0
   -6.0000   -5.1962    0.0000 C   0  0  0  0  0  0  0  0  0  0  0  0
   -5.2500   -6.4952    0.0000 C   0  0  0  0  0  0  0  0  0  0  0  0
   -3.7500   -6.4952    0.0000 C   0  0  0  0  0  0  0  0  0  0  0  0
   -3.0000   -5.1962    0.0000 C   0  0  0  0  0  0  0  0  0  0  0  0
  2  3  1  0
  3  4  2  0
  4  5  1  0
  5  6  1  0
  6  7  2  0
  7  8  1  0
  8  9  2  0
  9 10  1  0
 10 11  2  0
 11 12  1  0
 12 13  2  0
  7 14  1  0
 14 15  2  0
 14 16  1  0
 16 17  1  0
 17 18  1  0
 18 19  1  0
 19 20  1  0
 20 21  1  0
 21 22  1  0
 22 23  1  0
 23 24  1  0
  4 25  1  0
 25 26  2  0
 26 27  1  0
 27 28  2  0
 28 29  1  0
 29 30  2  0
 12  3  1  0
 11  6  1  0
 24 19  1  0
 30 25  1  0
M  END
$$$$
1051355
     RDKit          2D

 29 30  0  0  0  0  0  0  0  0999 V2000
    0.0000    7.4952    0.0000 Cl  0  0  0  0  0  0  0  0  0  0  0  0
    3.0000    0.0000    0.0000 C   0  0  0  0  0  0  0  0  0  0  0  0
    1.5000    0.0000    0.0000 C   0  0  0  0  0  0  0  0  0  0  0  0
    0.7500   -1.2990    0.0000 C   0  0  0  0  0  0  0  0  0  0  0  0
   -0.7500   -1.2990    0.0000 C   0  0  0  0  0  0  0  0  0  0  0  0
   -1.5000   -2.5981    0.0000 C   0  0  0  0  0  0  0  0  0  0  0  0
   -3.0000   -2.5981    0.0000 C   0  0  0  0  0  0  0  0  0  0  0  0
   -3.7500   -3.8971    0.0000 C   0  0  0  0  0  0  0  0  0  0  0  0
   -4.5000   -5.1962    0.0000 N   0  0  0  0  0  0  0  0  0  0  0  0
   -1.5000    0.0000    0.0000 C   0  0  0  0  0  0  0  0  0  0  0  0
   -0.7500    1.2990    0.0000 C   0  0  0  0  0  0  0  0  0  0  0  0
   -1.5000    2.5981    0.0000 C   0  0  0  0  0  0  0  0  0  0  0  0
    0.7500    1.2990    0.0000 C   0  0  0  0  0  0  0  0  0  0  0  0
    1.5000    2.5981    0.0000 N   0  0  0  0  0  0  0  0  0  0  0  0
    3.0000    2.5981    0.0000 C   0  0  0  0  0  0  0  0  0  0  0  0
    3.7500    1.2990    0.0000 C   0  0  0  0  0  0  0  0  0  0  0  0
    5.2500    1.2990    0.0000 C   0  0  0  0  0  0  0  0  0  0  0  0
    6.0000    2.5981    0.0000 N   0  0  0  0  0  0  0  0  0  0  0  0
    5.2500    3.8971    0.0000 C   0  0  0  0  0  0  0  0  0  0  0  0
    6.0000    5.1962    0.0000 N   0  0  0  0  0  0  0  0  0  0  0  0
    7.5000    5.1962    0.0000 C   0  0  0  0  0  0  0  0  0  0  0  0
    8.2500    3.8971    0.0000 C   0  0  0  0  0  0  0  0  0  0  0  0
    9.7500    3.8971    0.0000 C   0  0  0  0  0  0  0  0  0  0  0  0
   10.5000    5.1962    0.0000 C   0  0  0  0  0  0  0  0  0  0  0  0
    9.7500    6.4952    0.0000 C   0  0  0  0  0  0  0  0  0  0  0  0
    8.2500    6.4952    0.0000 C   0  0  0  0  0  0  0  0  0  0  0  0
   12.0000    5.1962    0.0000 C   0  0  0  0  0  0  0  0  0  0  0  0
   13.5000    5.1962    0.0000 N   0  0  0  0  0  0  0  0  0  0  0  0
    3.7500    3.8971    0.0000 N   0  0  0  0  0  0  0  0  0  0  0  0
  2  3  1  0
  3  4  2  0
  4  5  1  0
  5  6  1  0
  6  7  2  0
  7  8  1  0
  8  9  3  0
  5 10  2  0
 10 11  1  0
 11 12  1  0
 11 13  2  0
 13 14  1  0
 14 15  1  0
 15 16  2  0
 16 17  1  0
 17 18  2  0
 18 19  1  0
 19 20  1  0
 20 21  1  0
 21 22  2  0
 22 23  1  0
 23 24  2  0
 24 25  1  0
 25 26  2  0
 24 27  1  0
 27 28  3  0
 19 29  2  0
 13  3  1  0
 29 15  1  0
 26 21  1  0
M  END
$$$$
674401
     RDKit          2D

 22 23  0  0  0  0  0  0  0  0999 V2000
    4.0000    0.0000    0.0000 Cl  0  0  0  0  0  0  0  0  0  0  0  0
    3.0000    0.0000    0.0000 C   0  0  0  0  0  0  0  0  0  0  0  0
    1.5000    0.0000    0.0000 C   0  0  0  0  0  0  0  0  0  0  0  0
    0.7500   -1.2990    0.0000 C   0  0  0  0  0  0  0  0  0  0  0  0
   -0.7500   -1.2990    0.0000 C   0  0  0  0  0  0  0  0  0  0  0  0
   -1.5000    0.0000    0.0000 C   0  0  0  0  0  0  0  0  0  0  0  0
   -0.7500    1.2990    0.0000 C   0  0  0  0  0  0  0  0  0  0  0  0
    0.7500    1.2990    0.0000 C   0  0  0  0  0  0  0  0  0  0  0  0
   -3.0000    0.0000    0.0000 C   0  0  0  0  0  0  0  0  0  0  0  0
   -3.7500   -1.2990    0.0000 C   0  0  0  0  0  0  0  0  0  0  0  0
   -3.0000   -2.5981    0.0000 C   0  0  0  0  0  0  0  0  0  0  0  0
   -3.7500   -3.8971    0.0000 N   0  0  0  0  0  0  0  0  0  0  0  0
   -3.1399   -5.2674    0.0000 C   0  0  0  0  0  0  0  0  0  0  0  0
   -4.2546   -6.2711    0.0000 C   0  0  0  0  0  0  0  0  0  0  0  0
   -5.5537   -5.5211    0.0000 C   0  0  0  0  0  0  0  0  0  0  0  0
   -5.2418   -4.0539    0.0000 C   0  0  0  0  0  0  0  0  0  0  0  0
   -3.7500    1.2990    0.0000 C   0  0  0  0  0  0  0  0  0  0  0  0
   -3.0000    2.5981    0.0000 C   0  0  0  0  0  0  0  0  0  0  0  0
   -3.7500    3.8971    0.0000 C   0  0  0  0  0  0  0  0  0  0  0  0
   -5.2500    3.8971    0.0000 C   0  0  0  0  0  0  0  0  0  0  0  0
   -6.0000    2.5981    0.0000 C   0  0  0  0  0  0  0  0  0  0  0  0
   -5.2500    1.2990    0.0000 N   0  0  0  0  0  0  0  0  0  0  0  0
  2  3  1  0
  3  4  2  0
  4  5  1  0
  5  6  2  0
  6  7  1  0
  7  8  2  0
  6  9  1  0
  9 10  2  0
 10 11  1  0
 11 12  1  0
 12 13  1  0
 13 14  1  0
 14 15  1  0
 15 16  1  0
  9 17  1  0
 17 18  2  0
 18 19  1  0
 19 20  2  0
 20 21  1  0
 21 22  2  0
  8  3  1  0
 16 12  1  0
 22 17  1  0
M  END
$$$$
544765
     RDKit          2D

 26 27  0  0  0  0  0  0  0  0999 V2000
    4.3037    0.0000    0.0000 Cl  0  0  0  0  0  0  0  0  0  0  0  0
   -0.5773   -9.4764    0.0000 C   0  0  0  0  0  0  0  0  0  0  0  0
    0.8899   -9.1645    0.0000 C   0  0  0  0  0  0  0  0  0  0  0  0
    2.0046  -10.1682    0.0000 C   0  0  0  0  0  0  0  0  0  0  0  0
    3.3037   -9.4182    0.0000 C   0  0  0  0  0  0  0  0  0  0  0  0
    2.9918   -7.9510    0.0000 S   0  0  0  0  0  0  0  0  0  0  0  0
    1.5000   -7.7942    0.0000 C   0  0  0  0  0  0  0  0  0  0  0  0
    0.7500   -6.4952    0.0000 C   0  0  0  0  0  0  0  0  0  0  0  0
    1.5000   -5.1962    0.0000 C   0  0  0  0  0  0  0  0  0  0  0  0
    0.7500   -3.8971    0.0000 C   0  0  0  0  0  0  0  0  0  0  0  0
    1.5000   -2.5981    0.0000 C   0  0  0  0  0  0  0  0  0  0  0  0
    0.7500   -1.2990    0.0000 N   0  0  0  0  0  0  0  0  0  0  0  0
    1.5000    0.0000    0.0000 C   0  0  0  0  0  0  0  0  0  0  0  0
    0.7500    1.2990    0.0000 C   0  0  0  0  0  0  0  0  0  0  0  0
   -0.7500    1.2990    0.0000 C   0  0  0  0  0  0  0  0  0  0  0  0
   -1.5000    0.0000    0.0000 C   0  0  0  0  0  0  0  0  0  0  0  0
   -0.7500   -1.2990    0.0000 C   0  0  0  0  0  0  0  0  0  0  0  0
   -3.0000    0.0000    0.0000 C   0  0  0  0  0  0  0  0  0  0  0  0
   -3.7500   -1.2990    0.0000 O   0  0  0  0  0  0  0  0  0  0  0  0
   -3.7500    1.2990    0.0000 O   0  0  0  0  0  0  0  0  0  0  0  0
   -0.7500   -6.4952    0.0000 C   0  0  0  0  0  0  0  0  0  0  0  0
   -1.6317   -7.7087    0.0000 S   0  0  0  0  0  0  0  0  0  0  0  0
   -3.0583   -7.2452    0.0000 C   0  0  0  0  0  0  0  0  0  0  0  0
   -3.0583   -5.7452    0.0000 C   0  0  0  0  0  0  0  0  0  0  0  0
   -1.6317   -5.2817    0.0000 C   0  0  0  0  0  0  0  0  0  0  0  0
   -1.1682   -3.8551    0.0000 C   0  0  0  0  0  0  0  0  0  0  0  0
  2  3  1  0
  3  4  1  0
  4  5  2  0
  5  6  1  0
  6  7  1  0
  7  8  1  0
  8  9  2  0
  9 10  1  0
 10 11  1  0
 11 12  1  0
 12 13  1  0
 13 14  1  0
 14 15  1  0
 15 16  1  0
 16 17  1  0
 16 18  1  6
 18 19  2  0
 18 20  1  0
  8 21  1  0
 21 22  1  0
 22 23  1  0
 23 24  2  0
 24 25  1  0
 25 26  1  0
  7  3  2  0
 17 12  1  0
 25 21  2  0
M  END
$$$$
674344
     RDKit          2D

 27 29  0  0  0  0  0  0  0  0999 V2000
    5.2990    0.0000    0.0000 Cl  0  0  0  0  0  0  0  0  0  0  0  0
    0.7500   -6.4952    0.0000 C   0  0  0  0  0  0  0  0  0  0  0  0
    1.5000   -5.1962    0.0000 C   0  0  0  0  0  0  0  0  0  0  0  0
    0.7500   -3.8971    0.0000 C   0  0  0  0  0  0  0  0  0  0  0  0
    1.5000   -2.5981    0.0000 N   0  0  0  0  0  0  0  0  0  0  0  0
    3.0000   -2.5981    0.0000 C   0  0  0  0  0  0  0  0  0  0  0  0
    3.7500   -3.8971    0.0000 C   0  0  0  0  0  0  0  0  0  0  0  0
    3.0000   -5.1962    0.0000 N   0  0  0  0  0  0  0  0  0  0  0  0
    0.7500   -1.2990    0.0000 C   0  0  0  0  0  0  0  0  0  0  0  0
    1.5000    0.0000    0.0000 C   0  0  0  0  0  0  0  0  0  0  0  0
    0.7500    1.2990    0.0000 C   0  0  0  0  0  0  0  0  0  0  0  0
    1.5000    2.5981    0.0000 N   0  0  0  0  0  0  0  0  0  0  0  0
    0.7500    3.8971    0.0000 C   0  0  0  0  0  0  0  0  0  0  0  0
   -0.7500    3.8971    0.0000 C   0  0  0  0  0  0  0  0  0  0  0  0
   -1.5000    5.1962    0.0000 C   0  0  0  0  0  0  0  0  0  0  0  0
   -3.0000    5.1962    0.0000 O   0  0  0  0  0  0  0  0  0  0  0  0
   -0.7500    6.4952    0.0000 O   0  0  0  0  0  0  0  0  0  0  0  0
   -1.5000    2.5981    0.0000 C   0  0  0  0  0  0  0  0  0  0  0  0
   -3.0000    2.5981    0.0000 O   0  0  0  0  0  0  0  0  0  0  0  0
   -0.7500    1.2990    0.0000 C   0  0  0  0  0  0  0  0  0  0  0  0
   -1.5000    0.0000    0.0000 C   0  0  0  0  0  0  0  0  0  0  0  0
   -3.0000    0.0000    0.0000 C   0  0  0  0  0  0  0  0  0  0  0  0
   -0.7500   -1.2990    0.0000 C   0  0  0  0  0  0  0  0  0  0  0  0
   -1.5000   -2.5981    0.0000 F   0  0  0  0  0  0  0  0  0  0  0  0
    3.0000    2.5981    0.0000 C   0  0  0  0  0  0  0  0  0  0  0  0
    4.2990    3.3481    0.0000 C   0  0  0  0  0  0  0  0  0  0  0  0
    4.2990    1.8481    0.0000 C   0  0  0  0  0  0  0  0  0  0  0  0
  2  3  1  0
  3  4  1  0
  4  5  1  0
  5  6  1  0
  6  7  1  0
  7  8  1  0
  5  9  1  0
  9 10  2  0
 10 11  1  0
 11 12  1  0
 12 13  1  0
 13 14  2  0
 14 15  1  0
 15 16  2  0
 15 17  1  0
 14 18  1  0
 18 19  2  0
 18 20  1  0
 20 21  1  0
 21 22  1  0
 21 23  2  0
 23 24  1  0
 12 25  1  0
 25 26  1  0
 26 27  1  0
  8  3  1  0
 23  9  1  0
 20 11  2  0
 27 25  1  0
M  END
$$$$
674371
     RDKit          2D

 24 26  0  0  0  0  0  0  0  0999 V2000
    0.0000    3.5981    0.0000 Cl  0  0  0  0  0  0  0  0  0  0  0  0
   -3.9485   -1.0497    0.0000 C   0  0  0  0  0  0  0  0  0  0  0  0
   -3.1792   -2.3373    0.0000 C   0  0  0  0  0  0  0  0  0  0  0  0
   -3.7687   -3.7166    0.0000 N   0  0  0  0  0  0  0  0  0  0  0  0
   -2.6391   -4.7035    0.0000 C   0  0  0  0  0  0  0  0  0  0  0  0
   -1.3515   -3.9342    0.0000 C   0  0  0  0  0  0  0  0  0  0  0  0
   -0.0000   -4.5850    0.0000 C   0  0  0  0  0  0  0  0  0  0  0  0
    1.3515   -3.9342    0.0000 N   0  0  0  0  0  0  0  0  0  0  0  0
    1.6852   -2.4718    0.0000 C   0  0  0  0  0  0  0  0  0  0  0  0
    3.1476   -2.1380    0.0000 C   0  0  0  0  0  0  0  0  0  0  0  0
    4.1679   -3.2376    0.0000 C   0  0  0  0  0  0  0  0  0  0  0  0
    5.6303   -2.9038    0.0000 C   0  0  0  0  0  0  0  0  0  0  0  0
    6.0724   -1.4704    0.0000 C   0  0  0  0  0  0  0  0  0  0  0  0
    5.0522   -0.3709    0.0000 C   0  0  0  0  0  0  0  0  0  0  0  0
    3.5898   -0.7046    0.0000 C   0  0  0  0  0  0  0  0  0  0  0  0
    2.5695    0.3949    0.0000 F   0  0  0  0  0  0  0  0  0  0  0  0
    0.7500   -1.2990    0.0000 C   0  0  0  0  0  0  0  0  0  0  0  0
    1.5000    0.0000    0.0000 C   0  0  0  0  0  0  0  0  0  0  0  0
    0.7500    1.2990    0.0000 C   0  0  0  0  0  0  0  0  0  0  0  0
    1.5000    2.5981    0.0000 Cl  0  0  0  0  0  0  0  0  0  0  0  0
   -0.7500    1.2990    0.0000 C   0  0  0  0  0  0  0  0  0  0  0  0
   -1.5000    0.0000    0.0000 C   0  0  0  0  0  0  0  0  0  0  0  0
   -0.7500   -1.2990    0.0000 C   0  0  0  0  0  0  0  0  0  0  0  0
   -1.6852   -2.4718    0.0000 N   0  0  0  0  0  0  0  0  0  0  0  0
  2  3  1  0
  3  4  2  0
  4  5  1  0
  5  6  2  0
  6  7  1  0
  7  8  1  0
  8  9  2  0
  9 10  1  0
 10 11  2  0
 11 12  1  0
 12 13  2  0
 13 14  1  0
 14 15  2  0
 15 16  1  0
  9 17  1  0
 17 18  2  0
 18 19  1  0
 19 20  1  0
 19 21  2  0
 21 22  1  0
 22 23  2  0
 23 24  1  0
 24  3  1  0
 24  6  1  0
 15 10  1  0
 23 17  1  0
M  END
$$$$
675062
     RDKit          2D

 23 25  0  0  0  0  0  0  0  0999 V2000
    6.5668    0.0000    0.0000 Cl  0  0  0  0  0  0  0  0  0  0  0  0
    1.6858   -7.6212    0.0000 C   0  0  0  0  0  0  0  0  0  0  0  0
    3.1530   -7.9331    0.0000 C   0  0  0  0  0  0  0  0  0  0  0  0
    3.7631   -9.3034    0.0000 N   0  0  0  0  0  0  0  0  0  0  0  0
    5.2549   -9.1466    0.0000 C   0  0  0  0  0  0  0  0  0  0  0  0
    5.5668   -7.6794    0.0000 C   0  0  0  0  0  0  0  0  0  0  0  0
    4.2677   -6.9294    0.0000 N   0  0  0  0  0  0  0  0  0  0  0  0
    4.1110   -5.4376    0.0000 C   0  0  0  0  0  0  0  0  0  0  0  0
    2.7406   -4.8275    0.0000 C   0  0  0  0  0  0  0  0  0  0  0  0
    1.5271   -5.7092    0.0000 C   0  0  0  0  0  0  0  0  0  0  0  0
    0.1568   -5.0991    0.0000 C   0  0  0  0  0  0  0  0  0  0  0  0
    0.0000   -3.6073    0.0000 C   0  0  0  0  0  0  0  0  0  0  0  0
    1.2135   -2.7256    0.0000 C   0  0  0  0  0  0  0  0  0  0  0  0
    2.5838   -3.3357    0.0000 C   0  0  0  0  0  0  0  0  0  0  0  0
    3.7974   -2.4540    0.0000 O   0  0  0  0  0  0  0  0  0  0  0  0
    0.7500   -1.2990    0.0000 C   0  0  0  0  0  0  0  0  0  0  0  0
    1.5000    0.0000    0.0000 C   0  0  0  0  0  0  0  0  0  0  0  0
    0.7500    1.2990    0.0000 C   0  0  0  0  0  0  0  0  0  0  0  0
   -0.7500    1.2990    0.0000 C   0  0  0  0  0  0  0  0  0  0  0  0
   -1.5000    0.0000    0.0000 C   0  0  0  0  0  0  0  0  0  0  0  0
   -0.7500   -1.2990    0.0000 C   0  0  0  0  0  0  0  0  0  0  0  0
   -1.2135   -2.7256    0.0000 N   0  0  0  0  0  0  0  0  0  0  0  0
   -2.6401   -3.1891    0.0000 C   0  0  0  0  0  0  0  0  0  0  0  0
  2  3  1  0
  3  4  2  0
  4  5  1  0
  5  6  2  0
  6  7  1  0
  7  8  1  0
  8  9  1  0
  9 10  1  0
 10 11  1  0
 11 12  1  0
 12 13  2  0
 13 14  1  0
 14 15  2  0
 13 16  1  0
 16 17  2  0
 17 18  1  0
 18 19  2  0
 19 20  1  0
 20 21  2  0
 21 22  1  0
 22 23  1  0
  7  3  1  0
 14  9  1  0
 22 12  1  0
 21 16  1  0
M  END
$$$$
674434
     RDKit          2D

 14 14  0  0  0  0  0  0  0  0999 V2000
    4.7500    0.0000    0.0000 Cl  0  0  0  0  0  0  0  0  0  0  0  0
    3.0000    0.0000    0.0000 C   0  0  0  0  0  0  0  0  0  0  0  0
    1.5000    0.0000    0.0000 C   0  0  0  0  0  0  0  0  0  0  0  0
    0.7500   -1.2990    0.0000 N   0  0  0  0  0  0  0  0  0  0  0  0
   -0.7500   -1.2990    0.0000 C   0  0  0  0  0  0  0  0  0  0  0  0
   -1.5000    0.0000    0.0000 C   0  0  0  0  0  0  0  0  0  0  0  0
   -0.7500    1.2990    0.0000 O   0  0  0  0  0  0  0  0  0  0  0  0
    0.7500    1.2990    0.0000 C   0  0  0  0  0  0  0  0  0  0  0  0
    1.5000    2.5981    0.0000 C   0  0  0  0  0  0  0  0  0  0  0  0
    3.0000    2.5981    0.0000 C   0  0  0  0  0  0  0  0  0  0  0  0
    3.7500    3.8971    0.0000 C   0  0  0  0  0  0  0  0  0  0  0  0
    3.0000    5.1962    0.0000 C   0  0  0  0  0  0  0  0  0  0  0  0
    1.5000    5.1962    0.0000 C   0  0  0  0  0  0  0  0  0  0  0  0
    0.7500    3.8971    0.0000 C   0  0  0  0  0  0  0  0  0  0  0  0
  2  3  1  0
  3  4  1  0
  4  5  1  0
  5  6  1  0
  6  7  1  0
  7  8  1  0
  8  9  1  0
  9 10  2  0
 10 11  1  0
 11 12  2  0
 12 13  1  0
 13 14  2  0
  8  3  1  0
 14  9  1  0
M  END
$$$$
674836
     RDKit          2D

 23 25  0  0  0  0  0  0  0  0999 V2000
    6.5668    0.0000    0.0000 Cl  0  0  0  0  0  0  0  0  0  0  0  0
    1.6858   -7.6212    0.0000 C   0  0  0  0  0  0  0  0  0  0  0  0
    3.1530   -7.9331    0.0000 C   0  0  0  0  0  0  0  0  0  0  0  0
    3.7631   -9.3034    0.0000 N   0  0  0  0  0  0  0  0  0  0  0  0
    5.2549   -9.1466    0.0000 C   0  0  0  0  0  0  0  0  0  0  0  0
    5.5668   -7.6794    0.0000 N   0  0  0  0  0  0  0  0  0  0  0  0
    4.2677   -6.9294    0.0000 C   0  0  0  0  0  0  0  0  0  0  0  0
    4.1110   -5.4376    0.0000 C   0  0  0  0  0  0  0  0  0  0  0  0
    2.7406   -4.8275    0.0000 N   0  0  0  0  0  0  0  0  0  0  0  0
    1.5271   -5.7092    0.0000 C   0  0  0  0  0  0  0  0  0  0  0  0
    0.1568   -5.0991    0.0000 C   0  0  0  0  0  0  0  0  0  0  0  0
    0.0000   -3.6073    0.0000 C   0  0  0  0  0  0  0  0  0  0  0  0
    1.2135   -2.7256    0.0000 C   0  0  0  0  0  0  0  0  0  0  0  0
    2.5838   -3.3357    0.0000 C   0  0  0  0  0  0  0  0  0  0  0  0
    3.7974   -2.4540    0.0000 O   0  0  0  0  0  0  0  0  0  0  0  0
    0.7500   -1.2990    0.0000 C   0  0  0  0  0  0  0  0  0  0  0  0
    1.5000    0.0000    0.0000 C   0  0  0  0  0  0  0  0  0  0  0  0
    0.7500    1.2990    0.0000 C   0  0  0  0  0  0  0  0  0  0  0  0
   -0.7500    1.2990    0.0000 C   0  0  0  0  0  0  0  0  0  0  0  0
   -1.5000    0.0000    0.0000 C   0  0  0  0  0  0  0  0  0  0  0  0
   -0.7500   -1.2990    0.0000 C   0  0  0  0  0  0  0  0  0  0  0  0
   -1.2135   -2.7256    0.0000 N   0  0  0  0  0  0  0  0  0  0  0  0
   -2.6401   -3.1891    0.0000 C   0  0  0  0  0  0  0  0  0  0  0  0
  2  3  1  0
  3  4  1  0
  4  5  1  0
  5  6  2  0
  6  7  1  0
  7  8  1  0
  8  9  1  0
  9 10  1  0
 10 11  1  0
 11 12  1  0
 12 13  2  0
 13 14  1  0
 14 15  2  0
 13 16  1  0
 16 17  2  0
 17 18  1  0
 18 19  2  0
 19 20  1  0
 20 21  2  0
 21 22  1  0
 22 23  1  0
  7  3  2  0
 14  9  1  0
 22 12  1  0
 21 16  1  0
M  END
$$$$
674776
     RDKit          2D

 24 24  0  0  0  0  0  0  0  0999 V2000
    6.3971    0.0000    0.0000 Cl  0  0  0  0  0  0  0  0  0  0  0  0
   -2.3971   -3.3481    0.0000 C   0  0  0  0  0  0  0  0  0  0  0  0
   -1.0981   -2.5981    0.0000 C   0  0  0  0  0  0  0  0  0  0  0  0
    0.2010   -3.3481    0.0000 C   0  0  0  0  0  0  0  0  0  0  0  0
    0.0529   -4.5540    0.0000 O   0  0  0  0  0  0  0  0  0  0  0  0
    1.5000   -2.5981    0.0000 C   0  0  0  0  0  0  0  0  0  0  0  0
    2.2500   -3.8971    0.0000 C   0  0  0  0  0  0  0  0  0  0  0  0
    1.5000   -5.1962    0.0000 C   0  0  0  0  0  0  0  0  0  0  0  0
    0.2941   -5.3443    0.0000 C   0  0  0  0  0  0  0  0  0  0  0  0
    2.2500   -6.4952    0.0000 N   0  0  0  0  0  0  0  0  0  0  0  0
    1.5000   -7.7942    0.0000 C   0  0  0  0  0  0  0  0  0  0  0  0
    3.7500   -6.4952    0.0000 C   0  0  0  0  0  0  0  0  0  0  0  0
    0.7500   -1.2990    0.0000 C   0  0  0  0  0  0  0  0  0  0  0  0
    1.5000    0.0000    0.0000 C   0  0  0  0  0  0  0  0  0  0  0  0
    0.7500    1.2990    0.0000 C   0  0  0  0  0  0  0  0  0  0  0  0
   -0.7500    1.2990    0.0000 C   0  0  0  0  0  0  0  0  0  0  0  0
   -1.5000    0.0000    0.0000 C   0  0  0  0  0  0  0  0  0  0  0  0
   -0.7500   -1.2990    0.0000 C   0  0  0  0  0  0  0  0  0  0  0  0
    2.7990   -1.8481    0.0000 C   0  0  0  0  0  0  0  0  0  0  0  0
    2.7990   -0.3481    0.0000 C   0  0  0  0  0  0  0  0  0  0  0  0
    4.0981    0.4019    0.0000 C   0  0  0  0  0  0  0  0  0  0  0  0
    5.3971   -0.3481    0.0000 C   0  0  0  0  0  0  0  0  0  0  0  0
    5.3971   -1.8481    0.0000 C   0  0  0  0  0  0  0  0  0  0  0  0
    4.0981   -2.5981    0.0000 C   0  0  0  0  0  0  0  0  0  0  0  0
  2  3  1  0
  3  4  1  0
  4  5  2  0
  4  6  1  0
  6  7  1  0
  7  8  1  0
  8  9  1  0
  8 10  1  0
 10 11  1  0
 10 12  1  0
  6 13  1  0
 13 14  2  0
 14 15  1  0
 15 16  2  0
 16 17  1  0
 17 18  2  0
  6 19  1  0
 19 20  2  0
 20 21  1  0
 21 22  2  0
 22 23  1  0
 23 24  2  0
 18 13  1  0
 24 19  1  0
M  END
$$$$
699455
     RDKit          2D

 26 26  0  0  0  0  0  0  0  0999 V2000
    5.6471    0.0000    0.0000 Cl  0  0  0  0  0  0  0  0  0  0  0  0
   -4.4462   -3.8971    0.0000 C   0  0  0  0  0  0  0  0  0  0  0  0
   -3.1471   -3.1471    0.0000 C   0  0  0  0  0  0  0  0  0  0  0  0
   -1.8481   -3.8971    0.0000 C   0  0  0  0  0  0  0  0  0  0  0  0
   -1.9962   -5.1031    0.0000 O   0  0  0  0  0  0  0  0  0  0  0  0
   -0.5490   -3.1471    0.0000 O   0  0  0  0  0  0  0  0  0  0  0  0
    0.7500   -3.8971    0.0000 C   0  0  0  0  0  0  0  0  0  0  0  0
    1.5000   -2.5981    0.0000 C   0  0  0  0  0  0  0  0  0  0  0  0
    0.7500   -1.2990    0.0000 C   0  0  0  0  0  0  0  0  0  0  0  0
    1.5000    0.0000    0.0000 C   0  0  0  0  0  0  0  0  0  0  0  0
    0.7500    1.2990    0.0000 C   0  0  0  0  0  0  0  0  0  0  0  0
   -0.7500    1.2990    0.0000 C   0  0  0  0  0  0  0  0  0  0  0  0
   -1.5000    0.0000    0.0000 C   0  0  0  0  0  0  0  0  0  0  0  0
   -0.7500   -1.2990    0.0000 C   0  0  0  0  0  0  0  0  0  0  0  0
   -0.0000   -5.1962    0.0000 C   0  0  0  0  0  0  0  0  0  0  0  0
   -1.2059   -5.3443    0.0000 C   0  0  0  0  0  0  0  0  0  0  0  0
    0.7500   -6.4952    0.0000 C   0  0  0  0  0  0  0  0  0  0  0  0
   -0.0000   -7.7942    0.0000 N   0  0  0  0  0  0  0  0  0  0  0  0
    0.7500   -9.0933    0.0000 C   0  0  0  0  0  0  0  0  0  0  0  0
   -1.5000   -7.7942    0.0000 C   0  0  0  0  0  0  0  0  0  0  0  0
    2.0490   -4.6471    0.0000 C   0  0  0  0  0  0  0  0  0  0  0  0
    2.0490   -6.1471    0.0000 C   0  0  0  0  0  0  0  0  0  0  0  0
    3.3481   -6.8971    0.0000 C   0  0  0  0  0  0  0  0  0  0  0  0
    4.6471   -6.1471    0.0000 C   0  0  0  0  0  0  0  0  0  0  0  0
    4.6471   -4.6471    0.0000 C   0  0  0  0  0  0  0  0  0  0  0  0
    3.3481   -3.8971    0.0000 C   0  0  0  0  0  0  0  0  0  0  0  0
  2  3  1  0
  3  4  1  0
  4  5  2  0
  4  6  1  0
  6  7  1  0
  7  8  1  1
  8  9  1  0
  9 10  2  0
 10 11  1  0
 11 12  2  0
 12 13  1  0
 13 14  2  0
  7 15  1  0
 15 16  1  1
 15 17  1  0
 17 18  1  0
 18 19  1  0
 18 20  1  0
  7 21  1  0
 21 22  2  0
 22 23  1  0
 23 24  2  0
 24 25  1  0
 25 26  2  0
 14  9  1  0
 26 21  1  0
M  END
$$$$
674443
     RDKit          2D

 34 36  0  0  0  0  0  0  0  0999 V2000
    2.5000    0.0000    0.0000 Cl  0  0  0  0  0  0  0  0  0  0  0  0
   -0.8113  -11.2427    0.0000 C   0  0  0  0  0  0  0  0  0  0  0  0
    0.4022  -10.3610    0.0000 C   0  0  0  0  0  0  0  0  0  0  0  0
    0.2454   -8.8692    0.0000 C   0  0  0  0  0  0  0  0  0  0  0  0
    1.3601   -7.8655    0.0000 N   0  0  0  0  0  0  0  0  0  0  0  0
    0.7500   -6.4952    0.0000 N   0  0  0  0  0  0  0  0  0  0  0  0
    1.5000   -5.1962    0.0000 C   0  0  0  0  0  0  0  0  0  0  0  0
    0.7500   -3.8971    0.0000 C   0  0  0  0  0  0  0  0  0  0  0  0
    1.5000   -2.5981    0.0000 C   0  0  0  0  0  0  0  0  0  0  0  0
    0.7500   -1.2990    0.0000 N   0  0  0  0  0  0  0  0  0  0  0  0
    1.5000    0.0000    0.0000 C   0  0  0  0  0  0  0  0  0  0  0  0
    0.7500    1.2990    0.0000 C   0  0  0  0  0  0  0  0  0  0  0  0
   -0.7500    1.2990    0.0000 N   0  0  0  0  0  0  0  0  0  0  0  0
   -1.5000    0.0000    0.0000 C   0  0  0  0  0  0  0  0  0  0  0  0
   -0.7500   -1.2990    0.0000 C   0  0  0  0  0  0  0  0  0  0  0  0
   -1.5000    2.5981    0.0000 C   0  0  0  0  0  0  0  0  0  0  0  0
   -0.7500    3.8971    0.0000 C   0  0  0  0  0  0  0  0  0  0  0  0
   -1.5000    5.1962    0.0000 C   0  0  0  0  0  0  0  0  0  0  0  0
   -3.0000    5.1962    0.0000 C   0  0  0  0  0  0  0  0  0  0  0  0
   -3.7500    3.8971    0.0000 C   0  0  0  0  0  0  0  0  0  0  0  0
   -5.2500    3.8971    0.0000 Cl  0  0  0  0  0  0  0  0  0  0  0  0
   -3.0000    2.5981    0.0000 C   0  0  0  0  0  0  0  0  0  0  0  0
   -0.7418   -6.6520    0.0000 C   0  0  0  0  0  0  0  0  0  0  0  0
   -1.7455   -5.5373    0.0000 O   0  0  0  0  0  0  0  0  0  0  0  0
   -1.0537   -8.1192    0.0000 N   0  0  0  0  0  0  0  0  0  0  0  0
   -2.4240   -8.7293    0.0000 C   0  0  0  0  0  0  0  0  0  0  0  0
   -3.6375   -7.8476    0.0000 C   0  0  0  0  0  0  0  0  0  0  0  0
   -5.0078   -8.4577    0.0000 O   0  0  0  0  0  0  0  0  0  0  0  0
   -6.2213   -7.5761    0.0000 C   0  0  0  0  0  0  0  0  0  0  0  0
   -6.0645   -6.0843    0.0000 C   0  0  0  0  0  0  0  0  0  0  0  0
   -7.2781   -5.2026    0.0000 C   0  0  0  0  0  0  0  0  0  0  0  0
   -8.6484   -5.8127    0.0000 C   0  0  0  0  0  0  0  0  0  0  0  0
   -8.8052   -7.3045    0.0000 C   0  0  0  0  0  0  0  0  0  0  0  0
   -7.5917   -8.1862    0.0000 C   0  0  0  0  0  0  0  0  0  0  0  0
  2  3  1  0
  3  4  1  0
  4  5  2  0
  5  6  1  0
  6  7  1  0
  7  8  1  0
  8  9  1  0
  9 10  1  0
 10 11  1  0
 11 12  1  0
 12 13  1  0
 13 14  1  0
 14 15  1  0
 13 16  1  0
 16 17  2  0
 17 18  1  0
 18 19  2  0
 19 20  1  0
 20 21  1  0
 20 22  2  0
  6 23  1  0
 23 24  2  0
 23 25  1  0
 25 26  1  0
 26 27  1  0
 27 28  1  0
 28 29  1  0
 29 30  2  0
 30 31  1  0
 31 32  2  0
 32 33  1  0
 33 34  2  0
 25  4  1  0
 15 10  1  0
 22 16  1  0
 34 29  1  0
M  END
$$$$
674370
     RDKit          2D

 21 22  0  0  0  0  0  0  0  0999 V2000
    2.5000    0.0000    0.0000 Cl  0  0  0  0  0  0  0  0  0  0  0  0
   -2.9520   -4.6564    0.0000 C   0  0  0  0  0  0  0  0  0  0  0  0
   -2.6401   -3.1891    0.0000 C   0  0  0  0  0  0  0  0  0  0  0  0
   -1.2135   -2.7256    0.0000 C   0  0  0  0  0  0  0  0  0  0  0  0
   -0.0000   -3.6073    0.0000 C   0  0  0  0  0  0  0  0  0  0  0  0
   -0.0000   -5.1073    0.0000 C   0  0  0  0  0  0  0  0  0  0  0  0
    1.2135   -2.7256    0.0000 N   0  0  0  0  0  0  0  0  0  0  0  0
    0.7500   -1.2990    0.0000 C   0  0  0  0  0  0  0  0  0  0  0  0
    1.5000    0.0000    0.0000 C   0  0  0  0  0  0  0  0  0  0  0  0
    0.7500    1.2990    0.0000 C   0  0  0  0  0  0  0  0  0  0  0  0
   -0.7500    1.2990    0.0000 C   0  0  0  0  0  0  0  0  0  0  0  0
   -1.5000    2.5981    0.0000 C   0  0  0  0  0  0  0  0  0  0  0  0
   -0.7500    3.8971    0.0000 N   0  0  0  0  0  0  0  0  0  0  0  0
    0.7500    3.8971    0.0000 C   0  0  0  0  0  0  0  0  0  0  0  0
    1.5000    5.1962    0.0000 C   0  0  0  0  0  0  0  0  0  0  0  0
    0.7500    6.4952    0.0000 O   0  0  0  0  0  0  0  0  0  0  0  0
   -0.7500    6.4952    0.0000 C   0  0  0  0  0  0  0  0  0  0  0  0
   -1.5000    5.1962    0.0000 C   0  0  0  0  0  0  0  0  0  0  0  0
   -1.5000    0.0000    0.0000 C   0  0  0  0  0  0  0  0  0  0  0  0
   -3.0000    0.0000    0.0000 O   0  0  0  0  0  0  0  0  0  0  0  0
   -0.7500   -1.2990    0.0000 C   0  0  0  0  0  0  0  0  0  0  0  0
  2  3  1  0
  3  4  1  0
  4  5  2  0
  5  6  1  0
  5  7  1  0
  7  8  1  0
  8  9  1  0
  9 10  1  0
 10 11  1  0
 11 12  1  0
 12 13  1  0
 13 14  1  0
 14 15  1  0
 15 16  1  0
 16 17  1  0
 17 18  1  0
 11 19  1  0
 19 20  2  0
 19 21  1  0
 21  4  1  0
 21  8  2  0
 18 13  1  0
M  END
$$$$
2039291
     RDKit          2D

 37 41  0  0  0  0  0  0  0  0999 V2000
    3.2500    0.0000    0.0000 Cl  0  0  0  0  0  0  0  0  0  0  0  0
   -6.8516   -6.6578    0.0000 C   0  0  0  0  0  0  0  0  0  0  0  0
   -5.6381   -7.5395    0.0000 C   0  0  0  0  0  0  0  0  0  0  0  0
   -4.2677   -6.9294    0.0000 C   0  0  0  0  0  0  0  0  0  0  0  0
   -4.1110   -5.4376    0.0000 C   0  0  0  0  0  0  0  0  0  0  0  0
   -2.7406   -4.8275    0.0000 C   0  0  0  0  0  0  0  0  0  0  0  0
   -2.5838   -3.3357    0.0000 C   0  0  0  0  0  0  0  0  0  0  0  0
   -3.7974   -2.4540    0.0000 O   0  0  0  0  0  0  0  0  0  0  0  0
   -1.2135   -2.7256    0.0000 C   0  0  0  0  0  0  0  0  0  0  0  0
   -0.0000   -3.6073    0.0000 C   0  0  0  0  0  0  0  0  0  0  0  0
    1.2135   -2.7256    0.0000 N   0  0  0  0  0  0  0  0  0  0  0  0
    0.7500   -1.2990    0.0000 C   0  0  0  0  0  0  0  0  0  0  0  0
    1.5000    0.0000    0.0000 C   0  0  0  0  0  0  0  0  0  0  0  0
    0.7500    1.2990    0.0000 C   0  0  0  0  0  0  0  0  0  0  0  0
   -0.7500    1.2990    0.0000 C   0  0  0  0  0  0  0  0  0  0  0  0
   -1.5000    0.0000    0.0000 C   0  0  0  0  0  0  0  0  0  0  0  0
   -0.7500   -1.2990    0.0000 C   0  0  0  0  0  0  0  0  0  0  0  0
    1.5000    2.5981    0.0000 C   0  0  0  0  0  0  0  0  0  0  0  0
    2.2500    3.8971    0.0000 N   0  0  0  0  0  0  0  0  0  0  0  0
   -0.1568   -5.0991    0.0000 C   0  0  0  0  0  0  0  0  0  0  0  0
    0.2061   -6.5545    0.0000 C   0  0  0  0  0  0  0  0  0  0  0  0
    1.3396   -4.9944    0.0000 C   0  0  0  0  0  0  0  0  0  0  0  0
   -1.5271   -5.7092    0.0000 C   0  0  0  0  0  0  0  0  0  0  0  0
   -1.6839   -7.2010    0.0000 C   0  0  0  0  0  0  0  0  0  0  0  0
   -3.0542   -7.8111    0.0000 C   0  0  0  0  0  0  0  0  0  0  0  0
   -3.2110   -9.3029    0.0000 N   0  0  0  0  0  0  0  0  0  0  0  0
   -4.5813   -9.9130    0.0000 C   0  0  0  0  0  0  0  0  0  0  0  0
   -4.7381  -11.4047    0.0000 C   0  0  0  0  0  0  0  0  0  0  0  0
   -3.5246  -12.2864    0.0000 C   0  0  0  0  0  0  0  0  0  0  0  0
   -2.1543  -11.6763    0.0000 C   0  0  0  0  0  0  0  0  0  0  0  0
   -1.9975  -10.1845    0.0000 C   0  0  0  0  0  0  0  0  0  0  0  0
   -3.6814  -13.7782    0.0000 N   0  0  0  0  0  0  0  0  0  0  0  0
   -5.0517  -14.3883    0.0000 C   0  0  0  0  0  0  0  0  0  0  0  0
   -5.2085  -15.8801    0.0000 C   0  0  0  0  0  0  0  0  0  0  0  0
   -3.9950  -16.7618    0.0000 O   0  0  0  0  0  0  0  0  0  0  0  0
   -2.6247  -16.1517    0.0000 C   0  0  0  0  0  0  0  0  0  0  0  0
   -2.4679  -14.6599    0.0000 C   0  0  0  0  0  0  0  0  0  0  0  0
  2  3  1  0
  3  4  1  0
  4  5  2  0
  5  6  1  0
  6  7  1  0
  7  8  2  0
  7  9  1  0
  9 10  2  0
 10 11  1  0
 11 12  1  0
 12 13  2  0
 13 14  1  0
 14 15  2  0
 15 16  1  0
 16 17  2  0
 14 18  1  0
 18 19  3  0
 10 20  1  0
 20 21  1  0
 20 22  1  0
 20 23  1  0
 23 24  1  0
 24 25  2  0
 25 26  1  0
 26 27  1  0
 27 28  1  0
 28 29  1  0
 29 30  1  0
 30 31  1  0
 29 32  1  0
 32 33  1  0
 33 34  1  0
 34 35  1  0
 35 36  1  0
 36 37  1  0
 25  4  1  0
 23  6  2  0
 17  9  1  0
 17 12  1  0
 31 26  1  0
 37 32  1  0
M  END
$$$$
550857
     RDKit          2D

 26 27  0  0  0  0  0  0  0  0999 V2000
    4.7500    0.0000    0.0000 Cl  0  0  0  0  0  0  0  0  0  0  0  0
    3.7500   -1.2990    0.0000 C   0  0  0  0  0  0  0  0  0  0  0  0
    3.0000    0.0000    0.0000 C   0  0  0  0  0  0  0  0  0  0  0  0
    1.5000    0.0000    0.0000 C   0  0  0  0  0  0  0  0  0  0  0  0
    0.7500   -1.2990    0.0000 C   0  0  0  0  0  0  0  0  0  0  0  0
   -0.7500   -1.2990    0.0000 C   0  0  0  0  0  0  0  0  0  0  0  0
   -1.5000    0.0000    0.0000 C   0  0  0  0  0  0  0  0  0  0  0  0
   -3.0000    0.0000    0.0000 C   0  0  0  0  0  0  0  0  0  0  0  0
   -3.7500    1.2990    0.0000 C   0  0  0  0  0  0  0  0  0  0  0  0
   -5.2500    1.2990    0.0000 O   0  0  0  0  0  0  0  0  0  0  0  0
   -6.0000    2.5981    0.0000 C   0  0  0  0  0  0  0  0  0  0  0  0
   -5.2500    3.8971    0.0000 C   0  0  0  0  0  0  0  0  0  0  0  0
   -6.0000    5.1962    0.0000 C   0  0  0  0  0  0  0  0  0  0  0  0
   -7.5000    5.1962    0.0000 C   0  0  0  0  0  0  0  0  0  0  0  0
   -8.2500    6.4952    0.0000 C   0  0  0  0  0  0  0  0  0  0  0  0
   -7.5000    7.7942    0.0000 C   0  0  0  0  0  0  0  0  0  0  0  0
   -8.1101    9.1645    0.0000 S   0  0  0  0  0  0  0  0  0  0  0  0
   -6.9954   10.1682    0.0000 C   0  0  0  0  0  0  0  0  0  0  0  0
   -7.1522   11.6600    0.0000 O   0  0  0  0  0  0  0  0  0  0  0  0
   -5.6963    9.4182    0.0000 N   0  0  0  0  0  0  0  0  0  0  0  0
   -6.0082    7.9510    0.0000 C   0  0  0  0  0  0  0  0  0  0  0  0
   -5.0045    6.8363    0.0000 O   0  0  0  0  0  0  0  0  0  0  0  0
   -8.2500    3.8971    0.0000 C   0  0  0  0  0  0  0  0  0  0  0  0
   -7.5000    2.5981    0.0000 C   0  0  0  0  0  0  0  0  0  0  0  0
   -0.7500    1.2990    0.0000 N   0  0  0  0  0  0  0  0  0  0  0  0
    0.7500    1.2990    0.0000 C   0  0  0  0  0  0  0  0  0  0  0  0
  2  3  1  0
  3  4  1  0
  4  5  2  0
  5  6  1  0
  6  7  2  0
  7  8  1  0
  8  9  1  0
  9 10  1  0
 10 11  1  0
 11 12  2  0
 12 13  1  0
 13 14  2  0
 14 15  1  0
 15 16  1  0
 16 17  1  0
 17 18  1  0
 18 19  2  0
 18 20  1  0
 20 21  1  0
 21 22  2  0
 14 23  1  0
 23 24  2  0
  7 25  1  0
 25 26  2  0
 26  4  1  0
 24 11  1  0
 21 16  1  0
M  END
$$$$
674764
     RDKit          2D

 25 24  0  0  0  0  0  0  0  0999 V2000
    0.0000    4.8971    0.0000 Cl  0  0  0  0  0  0  0  0  0  0  0  0
    7.5000   -2.5981    0.0000 C   0  0  0  0  0  0  0  0  0  0  0  0
    6.0000   -2.5981    0.0000 C   0  0  0  0  0  0  0  0  0  0  0  0
    5.2500   -1.2990    0.0000 C   0  0  0  0  0  0  0  0  0  0  0  0
    3.7500   -1.2990    0.0000 C   0  0  0  0  0  0  0  0  0  0  0  0
    3.0000   -2.5981    0.0000 O   0  0  0  0  0  0  0  0  0  0  0  0
    3.0000    0.0000    0.0000 N   0  0  0  0  0  0  0  0  0  0  0  0
    1.5000    0.0000    0.0000 C   0  0  0  0  0  0  0  0  0  0  0  0
    0.7500   -1.2990    0.0000 C   0  0  0  0  0  0  0  0  0  0  0  0
   -0.7500   -1.2990    0.0000 C   0  0  0  0  0  0  0  0  0  0  0  0
   -1.5000    0.0000    0.0000 C   0  0  0  0  0  0  0  0  0  0  0  0
   -3.0000    0.0000    0.0000 O   0  0  0  0  0  0  0  0  0  0  0  0
   -3.7500   -1.2990    0.0000 C   0  0  0  0  0  0  0  0  0  0  0  0
   -5.2500   -1.2990    0.0000 C   0  0  0  0  0  0  0  0  0  0  0  0
   -6.0000    0.0000    0.0000 O   0  0  0  0  0  0  0  0  0  0  0  0
   -6.0000   -2.5981    0.0000 C   0  0  0  0  0  0  0  0  0  0  0  0
   -7.5000   -2.5981    0.0000 N   0  0  0  0  0  0  0  0  0  0  0  0
   -8.2500   -3.8971    0.0000 C   0  0  0  0  0  0  0  0  0  0  0  0
   -9.7500   -3.8971    0.0000 C   0  0  0  0  0  0  0  0  0  0  0  0
   -7.5000   -5.1962    0.0000 C   0  0  0  0  0  0  0  0  0  0  0  0
   -0.7500    1.2990    0.0000 C   0  0  0  0  0  0  0  0  0  0  0  0
    0.7500    1.2990    0.0000 C   0  0  0  0  0  0  0  0  0  0  0  0
   -1.5000    2.5981    0.0000 C   0  0  0  0  0  0  0  0  0  0  0  0
   -3.0000    2.5981    0.0000 O   0  0  0  0  0  0  0  0  0  0  0  0
   -0.7500    3.8971    0.0000 C   0  0  0  0  0  0  0  0  0  0  0  0
  2  3  1  0
  3  4  1  0
  4  5  1  0
  5  6  2  0
  5  7  1  0
  7  8  1  0
  8  9  2  0
  9 10  1  0
 10 11  2  0
 11 12  1  0
 12 13  1  0
 13 14  1  0
 14 15  1  0
 14 16  1  0
 16 17  1  0
 17 18  1  0
 18 19  1  0
 18 20  1  0
 11 21  1  0
 21 22  2  0
 21 23  1  0
 23 24  2  0
 23 25  1  0
 22  8  1  0
M  END
$$$$
283529
     RDKit          2D

 35 37  0  0  0  0  0  0  0  0999 V2000
    4.7500    0.0000    0.0000 Cl  0  0  0  0  0  0  0  0  0  0  0  0
   -4.3786   -5.1199    0.0000 C   0  0  0  0  0  0  0  0  0  0  0  0
   -2.9520   -4.6564    0.0000 C   0  0  0  0  0  0  0  0  0  0  0  0
   -2.6401   -3.1891    0.0000 C   0  0  0  0  0  0  0  0  0  0  0  0
   -1.2135   -2.7256    0.0000 C   0  0  0  0  0  0  0  0  0  0  0  0
   -0.0000   -3.6073    0.0000 N   0  0  0  0  0  0  0  0  0  0  0  0
    1.2135   -2.7256    0.0000 C   0  0  0  0  0  0  0  0  0  0  0  0
    2.6401   -3.1891    0.0000 C   0  0  0  0  0  0  0  0  0  0  0  0
    0.7500   -1.2990    0.0000 C   0  0  0  0  0  0  0  0  0  0  0  0
    1.5000    0.0000    0.0000 C   0  0  0  0  0  0  0  0  0  0  0  0
    3.0000    0.0000    0.0000 O   0  0  0  0  0  0  0  0  0  0  0  0
    0.7500    1.2990    0.0000 N   0  0  0  0  0  0  0  0  0  0  0  0
   -0.7500    1.2990    0.0000 C   0  0  0  0  0  0  0  0  0  0  0  0
   -1.5000    0.0000    0.0000 N   0  0  0  0  0  0  0  0  0  0  0  0
   -0.7500   -1.2990    0.0000 N   0  0  0  0  0  0  0  0  0  0  0  0
   -1.5000    2.5981    0.0000 C   0  0  0  0  0  0  0  0  0  0  0  0
   -0.7500    3.8971    0.0000 C   0  0  0  0  0  0  0  0  0  0  0  0
   -1.5000    5.1962    0.0000 C   0  0  0  0  0  0  0  0  0  0  0  0
   -3.0000    5.1962    0.0000 C   0  0  0  0  0  0  0  0  0  0  0  0
   -3.7500    3.8971    0.0000 C   0  0  0  0  0  0  0  0  0  0  0  0
   -3.0000    2.5981    0.0000 C   0  0  0  0  0  0  0  0  0  0  0  0
   -3.7500    1.2990    0.0000 O   0  0  0  0  0  0  0  0  0  0  0  0
   -5.2500    1.2990    0.0000 C   0  0  0  0  0  0  0  0  0  0  0  0
   -6.0000    0.0000    0.0000 C   0  0  0  0  0  0  0  0  0  0  0  0
   -0.7500    6.4952    0.0000 S   0  0  0  0  0  0  0  0  0  0  0  0
    0.5490    5.7452    0.0000 O   0  0  0  0  0  0  0  0  0  0  0  0
   -2.0490    7.2452    0.0000 O   0  0  0  0  0  0  0  0  0  0  0  0
    0.0000    7.7942    0.0000 N   0  0  0  0  0  0  0  0  0  0  0  0
    1.5000    7.7942    0.0000 C   0  0  0  0  0  0  0  0  0  0  0  0
    2.2500    9.0933    0.0000 C   0  0  0  0  0  0  0  0  0  0  0  0
    1.5000   10.3923    0.0000 N   0  0  0  0  0  0  0  0  0  0  0  0
    2.2500   11.6913    0.0000 C   0  0  0  0  0  0  0  0  0  0  0  0
    3.7500   11.6913    0.0000 C   0  0  0  0  0  0  0  0  0  0  0  0
   -0.0000   10.3923    0.0000 C   0  0  0  0  0  0  0  0  0  0  0  0
   -0.7500    9.0933    0.0000 C   0  0  0  0  0  0  0  0  0  0  0  0
  2  3  1  0
  3  4  1  0
  4  5  1  0
  5  6  2  0
  6  7  1  0
  7  8  1  0
  7  9  2  0
  9 10  1  0
 10 11  1  0
 10 12  2  0
 12 13  1  0
 13 14  2  0
 14 15  1  0
 13 16  1  0
 16 17  2  0
 17 18  1  0
 18 19  2  0
 19 20  1  0
 20 21  2  0
 21 22  1  0
 22 23  1  0
 23 24  1  0
 18 25  1  0
 25 26  2  0
 25 27  2  0
 25 28  1  0
 28 29  1  0
 29 30  1  0
 30 31  1  0
 31 32  1  0
 32 33  1  0
 31 34  1  0
 34 35  1  0
 15  5  1  0
 15  9  1  0
 21 16  1  0
 35 28  1  0
M  END
$$$$
630439
     RDKit          2D

 32 33  0  0  0  0  0  0  0  0999 V2000
    3.5981    0.0000    0.0000 Cl  0  0  0  0  0  0  0  0  0  0  0  0
    2.5981   -8.1073    0.0000 C   0  0  0  0  0  0  0  0  0  0  0  0
    1.2990   -7.3573    0.0000 C   0  0  0  0  0  0  0  0  0  0  0  0
    1.2990   -5.8573    0.0000 C   0  0  0  0  0  0  0  0  0  0  0  0
   -0.0000   -5.1073    0.0000 C   0  0  0  0  0  0  0  0  0  0  0  0
   -0.0000   -3.6073    0.0000 C   0  0  0  0  0  0  0  0  0  0  0  0
    1.2135   -2.7256    0.0000 O   0  0  0  0  0  0  0  0  0  0  0  0
    0.7500   -1.2990    0.0000 C   0  0  0  0  0  0  0  0  0  0  0  0
    1.5000    0.0000    0.0000 C   0  0  0  0  0  0  0  0  0  0  0  0
    0.7500    1.2990    0.0000 C   0  0  0  0  0  0  0  0  0  0  0  0
   -0.7500    1.2990    0.0000 C   0  0  0  0  0  0  0  0  0  0  0  0
   -1.5000    0.0000    0.0000 C   0  0  0  0  0  0  0  0  0  0  0  0
   -0.7500   -1.2990    0.0000 C   0  0  0  0  0  0  0  0  0  0  0  0
   -1.2135   -2.7256    0.0000 C   0  0  0  0  0  0  0  0  0  0  0  0
   -2.6401   -3.1891    0.0000 C   0  0  0  0  0  0  0  0  0  0  0  0
   -3.7548   -2.1855    0.0000 O   0  0  0  0  0  0  0  0  0  0  0  0
   -2.9520   -4.6564    0.0000 C   0  0  0  0  0  0  0  0  0  0  0  0
   -4.3786   -5.1199    0.0000 C   0  0  0  0  0  0  0  0  0  0  0  0
   -4.6904   -6.5871    0.0000 C   0  0  0  0  0  0  0  0  0  0  0  0
   -6.1170   -7.0506    0.0000 I   0  0  0  0  0  0  0  0  0  0  0  0
   -3.5757   -7.5908    0.0000 C   0  0  0  0  0  0  0  0  0  0  0  0
   -3.8876   -9.0580    0.0000 O   0  0  0  0  0  0  0  0  0  0  0  0
   -2.7729  -10.0617    0.0000 C   0  0  0  0  0  0  0  0  0  0  0  0
   -3.0847  -11.5290    0.0000 C   0  0  0  0  0  0  0  0  0  0  0  0
   -1.9700  -12.5326    0.0000 N   0  0  0  0  0  0  0  0  0  0  0  0
   -2.2819  -13.9999    0.0000 C   0  0  0  0  0  0  0  0  0  0  0  0
   -1.1672  -15.0036    0.0000 C   0  0  0  0  0  0  0  0  0  0  0  0
   -0.5434  -12.0691    0.0000 C   0  0  0  0  0  0  0  0  0  0  0  0
    0.5713  -13.0728    0.0000 C   0  0  0  0  0  0  0  0  0  0  0  0
   -2.1491   -7.1273    0.0000 C   0  0  0  0  0  0  0  0  0  0  0  0
   -1.0344   -8.1310    0.0000 I   0  0  0  0  0  0  0  0  0  0  0  0
   -1.8373   -5.6601    0.0000 C   0  0  0  0  0  0  0  0  0  0  0  0
  2  3  1  0
  3  4  1  0
  4  5  1  0
  5  6  1  0
  6  7  1  0
  7  8  1  0
  8  9  2  0
  9 10  1  0
 10 11  2  0
 11 12  1  0
 12 13  2  0
 13 14  1  0
 14 15  1  0
 15 16  2  0
 15 17  1  0
 17 18  2  0
 18 19  1  0
 19 20  1  0
 19 21  2  0
 21 22  1  0
 22 23  1  0
 23 24  1  0
 24 25  1  0
 25 26  1  0
 26 27  1  0
 25 28  1  0
 28 29  1  0
 21 30  1  0
 30 31  1  0
 30 32  2  0
 14  6  2  0
 13  8  1  0
 32 17  1  0
M  END
$$$$
543306
     RDKit          2D

 23 22  0  0  0  0  0  0  0  0999 V2000
    0.0000    4.5490    0.0000 Cl  0  0  0  0  0  0  0  0  0  0  0  0
   10.5000   -5.1962    0.0000 C   0  0  0  0  0  0  0  0  0  0  0  0
    9.7500   -3.8971    0.0000 C   0  0  0  0  0  0  0  0  0  0  0  0
    8.2500   -3.8971    0.0000 C   0  0  0  0  0  0  0  0  0  0  0  0
    7.5000   -2.5981    0.0000 C   0  0  0  0  0  0  0  0  0  0  0  0
    6.0000   -2.5981    0.0000 C   0  0  0  0  0  0  0  0  0  0  0  0
    5.2500   -1.2990    0.0000 C   0  0  0  0  0  0  0  0  0  0  0  0
    3.7500   -1.2990    0.0000 C   0  0  0  0  0  0  0  0  0  0  0  0
    3.0000    0.0000    0.0000 C   0  0  0  0  0  0  0  0  0  0  0  0
    1.5000    0.0000    0.0000 C   0  0  0  0  0  0  0  0  0  0  0  0
    0.7500   -1.2990    0.0000 C   0  0  0  0  0  0  0  0  0  0  0  0
   -0.7500   -1.2990    0.0000 C   0  0  0  0  0  0  0  0  0  0  0  0
   -1.5000    0.0000    0.0000 C   0  0  0  0  0  0  0  0  0  0  0  0
   -3.0000    0.0000    0.0000 C   0  0  0  0  0  0  0  0  0  0  0  0
   -3.7500    1.2990    0.0000 C   0  0  0  0  0  0  0  0  0  0  0  0
   -5.2500    1.2990    0.0000 C   0  0  0  0  0  0  0  0  0  0  0  0
   -5.2500   -0.2010    0.0000 N   0  0  0  0  0  0  0  0  0  0  0  0
   -6.7500    1.2990    0.0000 C   0  0  0  0  0  0  0  0  0  0  0  0
   -7.5000    0.0000    0.0000 O   0  0  0  0  0  0  0  0  0  0  0  0
   -5.2500    2.7990    0.0000 C   0  0  0  0  0  0  0  0  0  0  0  0
   -6.5490    3.5490    0.0000 O   0  0  0  0  0  0  0  0  0  0  0  0
   -0.7500    1.2990    0.0000 C   0  0  0  0  0  0  0  0  0  0  0  0
    0.7500    1.2990    0.0000 C   0  0  0  0  0  0  0  0  0  0  0  0
  2  3  1  0
  3  4  1  0
  4  5  1  0
  5  6  1  0
  6  7  1  0
  7  8  1  0
  8  9  1  0
  9 10  1  0
 10 11  2  0
 11 12  1  0
 12 13  2  0
 13 14  1  0
 14 15  1  0
 15 16  1  0
 16 17  1  0
 16 18  1  0
 18 19  1  0
 16 20  1  0
 20 21  1  0
 13 22  1  0
 22 23  2  0
 23 10  1  0
M  END
$$$$
699437
     RDKit          2D

 45 45  0  0  0  0  0  0  0  0999 V2000
    0.0000   11.3923    0.0000 Cl  0  0  0  0  0  0  0  0  0  0  0  0
   21.0000   10.3923    0.0000 C   0  0  0  0  0  0  0  0  0  0  0  0
   19.5000   10.3923    0.0000 C   0  0  0  0  0  0  0  0  0  0  0  0
   18.7500    9.0933    0.0000 C   0  0  0  0  0  0  0  0  0  0  0  0
   17.2500    9.0933    0.0000 C   0  0  0  0  0  0  0  0  0  0  0  0
   16.5000    7.7942    0.0000 C   0  0  0  0  0  0  0  0  0  0  0  0
   15.0000    7.7942    0.0000 C   0  0  0  0  0  0  0  0  0  0  0  0
   14.2500    6.4952    0.0000 C   0  0  0  0  0  0  0  0  0  0  0  0
   12.7500    6.4952    0.0000 C   0  0  0  0  0  0  0  0  0  0  0  0
   12.0000    5.1962    0.0000 C   0  0  0  0  0  0  0  0  0  0  0  0
   10.5000    5.1962    0.0000 C   0  0  0  0  0  0  0  0  0  0  0  0
    9.7500    3.8971    0.0000 C   0  0  0  0  0  0  0  0  0  0  0  0
    8.2500    3.8971    0.0000 C   0  0  0  0  0  0  0  0  0  0  0  0
    7.5000    2.5981    0.0000 C   0  0  0  0  0  0  0  0  0  0  0  0
    6.0000    2.5981    0.0000 C   0  0  0  0  0  0  0  0  0  0  0  0
    5.2500    1.2990    0.0000 C   0  0  0  0  0  0  0  0  0  0  0  0
    3.7500    1.2990    0.0000 C   0  0  0  0  0  0  0  0  0  0  0  0
    3.0000    2.5981    0.0000 O   0  0  0  0  0  0  0  0  0  0  0  0
    3.0000    0.0000    0.0000 O   0  0  0  0  0  0  0  0  0  0  0  0
    1.5000    0.0000    0.0000 C   0  0  0  0  0  0  0  0  0  0  0  0
    0.7500   -1.2990    0.0000 C   0  0  0  0  0  0  0  0  0  0  0  0
    1.5000   -2.5981    0.0000 O   0  0  0  0  0  0  0  0  0  0  0  0
   -0.7500   -1.2990    0.0000 C   0  0  0  0  0  0  0  0  0  0  0  0
   -1.5000   -2.5981    0.0000 O   0  0  0  0  0  0  0  0  0  0  0  0
   -1.5000    0.0000    0.0000 C   0  0  0  0  0  0  0  0  0  0  0  0
   -0.7500    1.2990    0.0000 O   0  0  0  0  0  0  0  0  0  0  0  0
    0.7500    1.2990    0.0000 C   0  0  0  0  0  0  0  0  0  0  0  0
    1.5000    2.5981    0.0000 S   0  0  0  0  0  0  0  0  0  0  0  0
    0.7500    3.8971    0.0000 C   0  0  0  0  0  0  0  0  0  0  0  0
   -3.0000    0.0000    0.0000 C   0  0  0  0  0  0  0  0  0  0  0  0
   -3.7500   -1.2990    0.0000 N   0  0  0  0  0  0  0  0  0  0  0  0
   -5.2500   -1.2990    0.0000 C   0  0  0  0  0  0  0  0  0  0  0  0
   -6.0000    0.0000    0.0000 O   0  0  0  0  0  0  0  0  0  0  0  0
   -6.0000   -2.5981    0.0000 C   0  0  0  0  0  0  0  0  0  0  0  0
   -5.3899   -3.9684    0.0000 C   0  0  0  0  0  0  0  0  0  0  0  0
   -6.5046   -4.9721    0.0000 C   0  0  0  0  0  0  0  0  0  0  0  0
   -6.3478   -6.4639    0.0000 C   0  0  0  0  0  0  0  0  0  0  0  0
   -7.5613   -7.3456    0.0000 C   0  0  0  0  0  0  0  0  0  0  0  0
   -7.4046   -8.8373    0.0000 C   0  0  0  0  0  0  0  0  0  0  0  0
   -7.8037   -4.2221    0.0000 C   0  0  0  0  0  0  0  0  0  0  0  0
   -7.4918   -2.7549    0.0000 N   0  0  0  0  0  0  0  0  0  0  0  0
   -8.4955   -1.6402    0.0000 C   0  0  0  0  0  0  0  0  0  0  0  0
   -3.7500    1.2990    0.0000 C   0  0  0  0  0  0  0  0  0  0  0  0
   -5.2500    1.2990    0.0000 C   0  0  0  0  0  0  0  0  0  0  0  0
   -3.0000    2.5981    0.0000 Cl  0  0  0  0  0  0  0  0  0  0  0  0
  2  3  1  0
  3  4  1  0
  4  5  1  0
  5  6  1  0
  6  7  1  0
  7  8  1  0
  8  9  1  0
  9 10  1  0
 10 11  1  0
 11 12  1  0
 12 13  1  0
 13 14  1  0
 14 15  1  0
 15 16  1  0
 16 17  1  0
 17 18  2  0
 17 19  1  0
 20 19  1  6
 20 21  1  0
 21 22  1  1
 21 23  1  0
 23 24  1  1
 23 25  1  0
 25 26  1  0
 26 27  1  0
 27 28  1  6
 28 29  1  0
 25 30  1  6
 30 31  1  0
 31 32  1  0
 32 33  2  0
 34 32  1  6
 34 35  1  0
 35 36  1  0
 36 37  1  1
 37 38  1  0
 38 39  1  0
 36 40  1  0
 40 41  1  0
 41 42  1  0
 30 43  1  0
 43 44  1  6
 43 45  1  0
 27 20  1  0
 41 34  1  0
M  END
$$$$
674852
     RDKit          2D

 34 35  0  0  0  0  0  0  0  0999 V2000
    0.0000    4.8971    0.0000 Cl  0  0  0  0  0  0  0  0  0  0  0  0
  -10.5000   -7.7942    0.0000 C   0  0  0  0  0  0  0  0  0  0  0  0
   -9.7500   -6.4952    0.0000 C   0  0  0  0  0  0  0  0  0  0  0  0
   -8.2500   -6.4952    0.0000 C   0  0  0  0  0  0  0  0  0  0  0  0
   -7.5000   -5.1962    0.0000 C   0  0  0  0  0  0  0  0  0  0  0  0
   -6.0000   -5.1962    0.0000 N   0  0  0  0  0  0  0  0  0  0  0  0
   -5.2500   -6.4952    0.0000 C   0  0  0  0  0  0  0  0  0  0  0  0
   -6.0000   -7.7942    0.0000 C   0  0  0  0  0  0  0  0  0  0  0  0
   -5.2500   -9.0933    0.0000 C   0  0  0  0  0  0  0  0  0  0  0  0
   -6.0000  -10.3923    0.0000 C   0  0  0  0  0  0  0  0  0  0  0  0
   -5.2500   -3.8971    0.0000 C   0  0  0  0  0  0  0  0  0  0  0  0
   -3.7500   -3.8971    0.0000 C   0  0  0  0  0  0  0  0  0  0  0  0
   -3.0000   -2.5981    0.0000 C   0  0  0  0  0  0  0  0  0  0  0  0
   -3.7500   -1.2990    0.0000 O   0  0  0  0  0  0  0  0  0  0  0  0
   -1.5000   -2.5981    0.0000 C   0  0  0  0  0  0  0  0  0  0  0  0
   -0.7500   -3.8971    0.0000 C   0  0  0  0  0  0  0  0  0  0  0  0
    0.7500   -3.8971    0.0000 C   0  0  0  0  0  0  0  0  0  0  0  0
    1.5000   -5.1962    0.0000 C   0  0  0  0  0  0  0  0  0  0  0  0
    0.7500   -6.4952    0.0000 Cl  0  0  0  0  0  0  0  0  0  0  0  0
    3.0000   -5.1962    0.0000 C   0  0  0  0  0  0  0  0  0  0  0  0
    3.7500   -3.8971    0.0000 C   0  0  0  0  0  0  0  0  0  0  0  0
    5.2500   -3.8971    0.0000 Cl  0  0  0  0  0  0  0  0  0  0  0  0
    3.0000   -2.5981    0.0000 C   0  0  0  0  0  0  0  0  0  0  0  0
    1.5000   -2.5981    0.0000 C   0  0  0  0  0  0  0  0  0  0  0  0
    0.7500   -1.2990    0.0000 C   0  0  0  0  0  0  0  0  0  0  0  0
    1.5000    0.0000    0.0000 C   0  0  0  0  0  0  0  0  0  0  0  0
    0.7500    1.2990    0.0000 C   0  0  0  0  0  0  0  0  0  0  0  0
   -0.7500    1.2990    0.0000 C   0  0  0  0  0  0  0  0  0  0  0  0
   -1.5000    0.0000    0.0000 C   0  0  0  0  0  0  0  0  0  0  0  0
   -0.7500   -1.2990    0.0000 C   0  0  0  0  0  0  0  0  0  0  0  0
    1.5000    2.5981    0.0000 C   0  0  0  0  0  0  0  0  0  0  0  0
    2.2500    3.8971    0.0000 F   0  0  0  0  0  0  0  0  0  0  0  0
    2.7990    1.8481    0.0000 F   0  0  0  0  0  0  0  0  0  0  0  0
    0.2010    3.3481    0.0000 F   0  0  0  0  0  0  0  0  0  0  0  0
  2  3  1  0
  3  4  1  0
  4  5  1  0
  5  6  1  0
  6  7  1  0
  7  8  1  0
  8  9  1  0
  9 10  1  0
  6 11  1  0
 11 12  1  0
 12 13  1  0
 13 14  1  0
 13 15  1  0
 15 16  2  0
 16 17  1  0
 17 18  2  0
 18 19  1  0
 18 20  1  0
 20 21  2  0
 21 22  1  0
 21 23  1  0
 23 24  2  0
 24 25  1  0
 25 26  2  0
 26 27  1  0
 27 28  2  0
 28 29  1  0
 29 30  2  0
 27 31  1  0
 31 32  1  0
 31 33  1  0
 31 34  1  0
 30 15  1  0
 24 17  1  0
 30 25  1  0
M  END
$$$$
675680
     RDKit          2D

 40 41  0  0  0  0  0  0  0  0999 V2000
    3.5981    0.0000    0.0000 Cl  0  0  0  0  0  0  0  0  0  0  0  0
  -10.8414  -16.7810    0.0000 C   0  0  0  0  0  0  0  0  0  0  0  0
  -10.5295  -15.3138    0.0000 C   0  0  0  0  0  0  0  0  0  0  0  0
   -9.1029  -14.8503    0.0000 C   0  0  0  0  0  0  0  0  0  0  0  0
   -8.7911  -13.3831    0.0000 C   0  0  0  0  0  0  0  0  0  0  0  0
   -7.3645  -12.9195    0.0000 N   0  0  0  0  0  0  0  0  0  0  0  0
   -6.2498  -13.9232    0.0000 C   0  0  0  0  0  0  0  0  0  0  0  0
   -6.5616  -15.3904    0.0000 C   0  0  0  0  0  0  0  0  0  0  0  0
   -5.4469  -16.3941    0.0000 C   0  0  0  0  0  0  0  0  0  0  0  0
   -5.7588  -17.8614    0.0000 C   0  0  0  0  0  0  0  0  0  0  0  0
   -7.0526  -11.4523    0.0000 C   0  0  0  0  0  0  0  0  0  0  0  0
   -5.6260  -10.9888    0.0000 C   0  0  0  0  0  0  0  0  0  0  0  0
   -5.3142   -9.5216    0.0000 C   0  0  0  0  0  0  0  0  0  0  0  0
   -3.8876   -9.0580    0.0000 O   0  0  0  0  0  0  0  0  0  0  0  0
   -3.5757   -7.5908    0.0000 C   0  0  0  0  0  0  0  0  0  0  0  0
   -4.6904   -6.5871    0.0000 C   0  0  0  0  0  0  0  0  0  0  0  0
   -4.3786   -5.1199    0.0000 C   0  0  0  0  0  0  0  0  0  0  0  0
   -2.9520   -4.6564    0.0000 C   0  0  0  0  0  0  0  0  0  0  0  0
   -1.8373   -5.6601    0.0000 C   0  0  0  0  0  0  0  0  0  0  0  0
   -2.1491   -7.1273    0.0000 C   0  0  0  0  0  0  0  0  0  0  0  0
   -2.6401   -3.1891    0.0000 C   0  0  0  0  0  0  0  0  0  0  0  0
   -3.7548   -2.1855    0.0000 O   0  0  0  0  0  0  0  0  0  0  0  0
   -1.2135   -2.7256    0.0000 C   0  0  0  0  0  0  0  0  0  0  0  0
   -0.0000   -3.6073    0.0000 C   0  0  0  0  0  0  0  0  0  0  0  0
    0.0000   -5.1073    0.0000 C   0  0  0  0  0  0  0  0  0  0  0  0
    1.2990   -5.8573    0.0000 C   0  0  0  0  0  0  0  0  0  0  0  0
    1.2990   -7.3573    0.0000 C   0  0  0  0  0  0  0  0  0  0  0  0
    2.5981   -8.1073    0.0000 C   0  0  0  0  0  0  0  0  0  0  0  0
    1.2135   -2.7256    0.0000 O   0  0  0  0  0  0  0  0  0  0  0  0
    0.7500   -1.2990    0.0000 C   0  0  0  0  0  0  0  0  0  0  0  0
    1.5000    0.0000    0.0000 C   0  0  0  0  0  0  0  0  0  0  0  0
    0.7500    1.2990    0.0000 C   0  0  0  0  0  0  0  0  0  0  0  0
   -0.7500    1.2990    0.0000 C   0  0  0  0  0  0  0  0  0  0  0  0
   -1.5000    2.5981    0.0000 N   0  0  0  0  0  0  0  0  0  0  0  0
   -0.7500    3.8971    0.0000 S   0  0  0  0  0  0  0  0  0  0  0  0
    0.5490    3.1471    0.0000 O   0  0  0  0  0  0  0  0  0  0  0  0
   -2.0490    4.6471    0.0000 O   0  0  0  0  0  0  0  0  0  0  0  0
    0.0000    5.1962    0.0000 C   0  0  0  0  0  0  0  0  0  0  0  0
   -1.5000    0.0000    0.0000 C   0  0  0  0  0  0  0  0  0  0  0  0
   -0.7500   -1.2990    0.0000 C   0  0  0  0  0  0  0  0  0  0  0  0
  2  3  1  0
  3  4  1  0
  4  5  1  0
  5  6  1  0
  6  7  1  0
  7  8  1  0
  8  9  1  0
  9 10  1  0
  6 11  1  0
 11 12  1  0
 12 13  1  0
 13 14  1  0
 14 15  1  0
 15 16  2  0
 16 17  1  0
 17 18  2  0
 18 19  1  0
 19 20  2  0
 18 21  1  0
 21 22  2  0
 21 23  1  0
 23 24  2  0
 24 25  1  0
 25 26  1  0
 26 27  1  0
 27 28  1  0
 24 29  1  0
 29 30  1  0
 30 31  2  0
 31 32  1  0
 32 33  2  0
 33 34  1  0
 34 35  1  0
 35 36  2  0
 35 37  2  0
 35 38  1  0
 33 39  1  0
 39 40  2  0
 20 15  1  0
 40 23  1  0
 40 30  1  0
M  END
$$$$
674362
     RDKit          2D

 20 20  0  0  0  0  0  0  0  0999 V2000
    0.0000    6.1073    0.0000 Cl  0  0  0  0  0  0  0  0  0  0  0  0
    8.2500   -3.8971    0.0000 C   0  0  0  0  0  0  0  0  0  0  0  0
    7.5000   -2.5981    0.0000 C   0  0  0  0  0  0  0  0  0  0  0  0
    6.0000   -2.5981    0.0000 C   0  0  0  0  0  0  0  0  0  0  0  0
    5.2500   -1.2990    0.0000 N   0  0  0  0  0  0  0  0  0  0  0  0
    6.0000    0.0000    0.0000 C   0  0  0  0  0  0  0  0  0  0  0  0
    7.5000   -0.0000    0.0000 C   0  0  0  0  0  0  0  0  0  0  0  0
    8.2500    1.2990    0.0000 C   0  0  0  0  0  0  0  0  0  0  0  0
    3.7500   -1.2990    0.0000 C   0  0  0  0  0  0  0  0  0  0  0  0
    3.0000    0.0000    0.0000 C   0  0  0  0  0  0  0  0  0  0  0  0
    1.5000    0.0000    0.0000 C   0  0  0  0  0  0  0  0  0  0  0  0
    0.7500   -1.2990    0.0000 C   0  0  0  0  0  0  0  0  0  0  0  0
   -0.7500   -1.2990    0.0000 C   0  0  0  0  0  0  0  0  0  0  0  0
   -1.5000    0.0000    0.0000 C   0  0  0  0  0  0  0  0  0  0  0  0
   -0.7500    1.2990    0.0000 C   0  0  0  0  0  0  0  0  0  0  0  0
   -1.2135    2.7256    0.0000 N   0  0  0  0  0  0  0  0  0  0  0  0
   -0.0000    3.6073    0.0000 C   0  0  0  0  0  0  0  0  0  0  0  0
   -0.0000    5.1073    0.0000 O   0  0  0  0  0  0  0  0  0  0  0  0
    1.2135    2.7256    0.0000 C   0  0  0  0  0  0  0  0  0  0  0  0
    0.7500    1.2990    0.0000 C   0  0  0  0  0  0  0  0  0  0  0  0
  2  3  1  0
  3  4  1  0
  4  5  1  0
  5  6  1  0
  6  7  1  0
  7  8  1  0
  5  9  1  0
  9 10  1  0
 10 11  1  0
 11 12  2  0
 12 13  1  0
 13 14  2  0
 14 15  1  0
 15 16  1  0
 16 17  1  0
 17 18  2  0
 17 19  1  0
 19 20  1  0
 20 11  1  0
 20 15  2  0
M  END
$$$$
675014
     RDKit          2D

 26 26  0  0  0  0  0  0  0  0999 V2000
    0.0000    6.1962    0.0000 Cl  0  0  0  0  0  0  0  0  0  0  0  0
   10.5000   -5.1962    0.0000 C   0  0  0  0  0  0  0  0  0  0  0  0
    9.7500   -3.8971    0.0000 C   0  0  0  0  0  0  0  0  0  0  0  0
    8.2500   -3.8971    0.0000 C   0  0  0  0  0  0  0  0  0  0  0  0
    7.5000   -2.5981    0.0000 N   0  0  0  0  0  0  0  0  0  0  0  0
    6.0000   -2.5981    0.0000 C   0  0  0  0  0  0  0  0  0  0  0  0
    5.2500   -1.2990    0.0000 C   0  0  0  0  0  0  0  0  0  0  0  0
    6.0000    0.0000    0.0000 O   0  0  0  0  0  0  0  0  0  0  0  0
    3.7500   -1.2990    0.0000 C   0  0  0  0  0  0  0  0  0  0  0  0
    3.0000    0.0000    0.0000 O   0  0  0  0  0  0  0  0  0  0  0  0
    1.5000    0.0000    0.0000 C   0  0  0  0  0  0  0  0  0  0  0  0
    0.7500   -1.2990    0.0000 C   0  0  0  0  0  0  0  0  0  0  0  0
   -0.7500   -1.2990    0.0000 C   0  0  0  0  0  0  0  0  0  0  0  0
   -1.5000    0.0000    0.0000 C   0  0  0  0  0  0  0  0  0  0  0  0
   -0.7500    1.2990    0.0000 C   0  0  0  0  0  0  0  0  0  0  0  0
    0.7500    1.2990    0.0000 C   0  0  0  0  0  0  0  0  0  0  0  0
    1.5000    2.5981    0.0000 C   0  0  0  0  0  0  0  0  0  0  0  0
    0.7500    3.8971    0.0000 O   0  0  0  0  0  0  0  0  0  0  0  0
    3.0000    2.5981    0.0000 C   0  0  0  0  0  0  0  0  0  0  0  0
    3.7500    3.8971    0.0000 C   0  0  0  0  0  0  0  0  0  0  0  0
    5.2500    3.8971    0.0000 C   0  0  0  0  0  0  0  0  0  0  0  0
    6.0000    2.5981    0.0000 C   0  0  0  0  0  0  0  0  0  0  0  0
    7.5000    2.5981    0.0000 C   0  0  0  0  0  0  0  0  0  0  0  0
    8.2500    3.8971    0.0000 C   0  0  0  0  0  0  0  0  0  0  0  0
    7.5000    5.1962    0.0000 C   0  0  0  0  0  0  0  0  0  0  0  0
    6.0000    5.1962    0.0000 C   0  0  0  0  0  0  0  0  0  0  0  0
  2  3  1  0
  3  4  1  0
  4  5  1  0
  5  6  1  0
  6  7  1  0
  7  8  1  0
  7  9  1  0
  9 10  1  0
 10 11  1  0
 11 12  2  0
 12 13  1  0
 13 14  2  0
 14 15  1  0
 15 16  2  0
 16 17  1  0
 17 18  2  0
 17 19  1  0
 19 20  1  0
 20 21  1  0
 21 22  2  0
 22 23  1  0
 23 24  2  0
 24 25  1  0
 25 26  2  0
 16 11  1  0
 26 21  1  0
M  END
$$$$
547836
     RDKit          2D

 15 15  0  0  0  0  0  0  0  0999 V2000
    0.0000    3.5537    0.0000 Cl  0  0  0  0  0  0  0  0  0  0  0  0
    6.0000   -2.5981    0.0000 C   0  0  0  0  0  0  0  0  0  0  0  0
    5.2500   -1.2990    0.0000 C   0  0  0  0  0  0  0  0  0  0  0  0
    3.7500   -1.2990    0.0000 C   0  0  0  0  0  0  0  0  0  0  0  0
    3.0000    0.0000    0.0000 N   0  0  0  0  0  0  0  0  0  0  0  0
    1.5000    0.0000    0.0000 C   0  0  0  0  0  0  0  0  0  0  0  0
    0.7500   -1.2990    0.0000 C   0  0  0  0  0  0  0  0  0  0  0  0
   -0.7500   -1.2990    0.0000 C   0  0  0  0  0  0  0  0  0  0  0  0
   -1.5000    0.0000    0.0000 C   0  0  0  0  0  0  0  0  0  0  0  0
   -2.9672    0.3119    0.0000 N   0  0  0  0  0  0  0  0  0  0  0  0
   -3.1240    1.8037    0.0000 C   0  0  0  0  0  0  0  0  0  0  0  0
   -4.4231    2.5537    0.0000 N   0  0  0  0  0  0  0  0  0  0  0  0
   -1.7537    2.4138    0.0000 S   0  0  0  0  0  0  0  0  0  0  0  0
   -0.7500    1.2990    0.0000 C   0  0  0  0  0  0  0  0  0  0  0  0
    0.7500    1.2990    0.0000 C   0  0  0  0  0  0  0  0  0  0  0  0
  2  3  1  0
  3  4  1  0
  4  5  1  0
  6  5  1  1
  6  7  1  0
  7  8  1  0
  8  9  1  0
  9 10  1  0
 10 11  2  0
 11 12  1  0
 11 13  1  0
 13 14  1  0
 14 15  1  0
 15  6  1  0
 14  9  2  0
M  END
$$$$
675048
     RDKit          2D

 28 28  0  0  0  0  0  0  0  0999 V2000
    4.7500    0.0000    0.0000 Cl  0  0  0  0  0  0  0  0  0  0  0  0
   -0.6546  -12.7344    0.0000 C   0  0  0  0  0  0  0  0  0  0  0  0
   -0.8113  -11.2427    0.0000 C   0  0  0  0  0  0  0  0  0  0  0  0
    0.4022  -10.3610    0.0000 C   0  0  0  0  0  0  0  0  0  0  0  0
    0.2454   -8.8692    0.0000 C   0  0  0  0  0  0  0  0  0  0  0  0
    1.3601   -7.8655    0.0000 C   0  0  0  0  0  0  0  0  0  0  0  0
    0.7500   -6.4952    0.0000 C   0  0  0  0  0  0  0  0  0  0  0  0
   -0.7418   -6.6520    0.0000 N   0  0  0  0  0  0  0  0  0  0  0  0
   -1.7455   -5.5373    0.0000 C   0  0  0  0  0  0  0  0  0  0  0  0
   -1.0537   -8.1192    0.0000 C   0  0  0  0  0  0  0  0  0  0  0  0
    1.5000   -5.1962    0.0000 C   0  0  0  0  0  0  0  0  0  0  0  0
    3.0000   -5.1962    0.0000 O   0  0  0  0  0  0  0  0  0  0  0  0
    0.7500   -3.8971    0.0000 N   0  0  0  0  0  0  0  0  0  0  0  0
    1.5000   -2.5981    0.0000 C   0  0  0  0  0  0  0  0  0  0  0  0
    3.0000   -2.5981    0.0000 C   0  0  0  0  0  0  0  0  0  0  0  0
    3.7500   -3.8971    0.0000 C   0  0  0  0  0  0  0  0  0  0  0  0
    3.7500   -1.2990    0.0000 O   0  0  0  0  0  0  0  0  0  0  0  0
    0.7500   -1.2990    0.0000 C   0  0  0  0  0  0  0  0  0  0  0  0
    1.5000    0.0000    0.0000 O   0  0  0  0  0  0  0  0  0  0  0  0
    0.7500    1.2990    0.0000 C   0  0  0  0  0  0  0  0  0  0  0  0
    1.5000    2.5981    0.0000 S   0  0  0  0  0  0  0  0  0  0  0  0
    3.0000    2.5981    0.0000 C   0  0  0  0  0  0  0  0  0  0  0  0
   -0.7500    1.2990    0.0000 C   0  0  0  0  0  0  0  0  0  0  0  0
   -1.5000    2.5981    0.0000 O   0  0  0  0  0  0  0  0  0  0  0  0
   -1.5000    0.0000    0.0000 C   0  0  0  0  0  0  0  0  0  0  0  0
   -3.0000    0.0000    0.0000 O   0  0  0  0  0  0  0  0  0  0  0  0
   -0.7500   -1.2990    0.0000 C   0  0  0  0  0  0  0  0  0  0  0  0
   -1.5000   -2.5981    0.0000 O   0  0  0  0  0  0  0  0  0  0  0  0
  2  3  1  0
  3  4  1  0
  5  4  1  1
  5  6  1  0
  6  7  1  0
  7  8  1  0
  8  9  1  0
  8 10  1  0
  7 11  1  6
 11 12  2  0
 11 13  1  0
 14 13  1  1
 14 15  1  0
 15 16  1  6
 15 17  1  0
 14 18  1  0
 18 19  1  6
 19 20  1  0
 20 21  1  1
 21 22  1  0
 20 23  1  0
 23 24  1  1
 23 25  1  0
 25 26  1  6
 25 27  1  0
 27 28  1  6
 10  5  1  0
 27 18  1  0
M  END
$$$$
674539
     RDKit          2D

 28 28  0  0  0  0  0  0  0  0999 V2000
    4.7500    0.0000    0.0000 Cl  0  0  0  0  0  0  0  0  0  0  0  0
   -0.6546  -12.7344    0.0000 C   0  0  0  0  0  0  0  0  0  0  0  0
   -0.8113  -11.2427    0.0000 C   0  0  0  0  0  0  0  0  0  0  0  0
    0.4022  -10.3610    0.0000 C   0  0  0  0  0  0  0  0  0  0  0  0
    0.2454   -8.8692    0.0000 C   0  0  0  0  0  0  0  0  0  0  0  0
    1.3601   -7.8655    0.0000 C   0  0  0  0  0  0  0  0  0  0  0  0
    0.7500   -6.4952    0.0000 C   0  0  0  0  0  0  0  0  0  0  0  0
   -0.7418   -6.6520    0.0000 N   0  0  0  0  0  0  0  0  0  0  0  0
   -1.7455   -5.5373    0.0000 C   0  0  0  0  0  0  0  0  0  0  0  0
   -1.0537   -8.1192    0.0000 C   0  0  0  0  0  0  0  0  0  0  0  0
    1.5000   -5.1962    0.0000 C   0  0  0  0  0  0  0  0  0  0  0  0
    3.0000   -5.1962    0.0000 O   0  0  0  0  0  0  0  0  0  0  0  0
    0.7500   -3.8971    0.0000 N   0  0  0  0  0  0  0  0  0  0  0  0
    1.5000   -2.5981    0.0000 C   0  0  0  0  0  0  0  0  0  0  0  0
    3.0000   -2.5981    0.0000 C   0  0  0  0  0  0  0  0  0  0  0  0
    3.7500   -3.8971    0.0000 C   0  0  0  0  0  0  0  0  0  0  0  0
    3.7500   -1.2990    0.0000 Cl  0  0  0  0  0  0  0  0  0  0  0  0
    0.7500   -1.2990    0.0000 C   0  0  0  0  0  0  0  0  0  0  0  0
    1.5000    0.0000    0.0000 O   0  0  0  0  0  0  0  0  0  0  0  0
    0.7500    1.2990    0.0000 C   0  0  0  0  0  0  0  0  0  0  0  0
    1.5000    2.5981    0.0000 S   0  0  0  0  0  0  0  0  0  0  0  0
    3.0000    2.5981    0.0000 C   0  0  0  0  0  0  0  0  0  0  0  0
   -0.7500    1.2990    0.0000 C   0  0  0  0  0  0  0  0  0  0  0  0
   -1.5000    2.5981    0.0000 O   0  0  0  0  0  0  0  0  0  0  0  0
   -1.5000    0.0000    0.0000 C   0  0  0  0  0  0  0  0  0  0  0  0
   -3.0000    0.0000    0.0000 O   0  0  0  0  0  0  0  0  0  0  0  0
   -0.7500   -1.2990    0.0000 C   0  0  0  0  0  0  0  0  0  0  0  0
   -1.5000   -2.5981    0.0000 O   0  0  0  0  0  0  0  0  0  0  0  0
  2  3  1  0
  3  4  1  0
  5  4  1  1
  5  6  1  0
  6  7  1  0
  7  8  1  0
  8  9  1  0
  8 10  1  0
  7 11  1  6
 11 12  2  0
 11 13  1  0
 14 13  1  1
 14 15  1  0
 15 16  1  1
 15 17  1  0
 14 18  1  0
 18 19  1  6
 19 20  1  0
 20 21  1  1
 21 22  1  0
 20 23  1  0
 23 24  1  1
 23 25  1  0
 25 26  1  6
 25 27  1  0
 27 28  1  6
 10  5  1  0
 27 18  1  0
M  END
$$$$
1378002
     RDKit          2D

 19 19  0  0  0  0  0  0  0  0999 V2000
    0.0000    2.2990    0.0000 Cl  0  0  0  0  0  0  0  0  0  0  0  0
    6.6172   -3.5004    0.0000 C   0  0  0  0  0  0  0  0  0  0  0  0
    5.4681   -2.5362    0.0000 C   0  0  0  0  0  0  0  0  0  0  0  0
    4.0586   -3.0492    0.0000 N   0  0  0  0  0  0  0  0  0  0  0  0
    3.7981   -4.5264    0.0000 C   0  0  0  0  0  0  0  0  0  0  0  0
    4.9472   -5.4906    0.0000 C   0  0  0  0  0  0  0  0  0  0  0  0
    2.9095   -2.0850    0.0000 C   0  0  0  0  0  0  0  0  0  0  0  0
    3.1700   -0.6078    0.0000 O   0  0  0  0  0  0  0  0  0  0  0  0
    1.5000   -2.5981    0.0000 C   0  0  0  0  0  0  0  0  0  0  0  0
    1.7605   -4.0753    0.0000 C   0  0  0  0  0  0  0  0  0  0  0  0
    0.3509   -3.5623    0.0000 C   0  0  0  0  0  0  0  0  0  0  0  0
   -1.1263   -3.8227    0.0000 C   0  0  0  0  0  0  0  0  0  0  0  0
   -1.6393   -5.2323    0.0000 N   0  0  0  0  0  0  0  0  0  0  0  0
    0.7500   -1.2990    0.0000 C   0  0  0  0  0  0  0  0  0  0  0  0
    1.5000    0.0000    0.0000 C   0  0  0  0  0  0  0  0  0  0  0  0
    0.7500    1.2990    0.0000 C   0  0  0  0  0  0  0  0  0  0  0  0
   -0.7500    1.2990    0.0000 C   0  0  0  0  0  0  0  0  0  0  0  0
   -1.5000    0.0000    0.0000 C   0  0  0  0  0  0  0  0  0  0  0  0
   -0.7500   -1.2990    0.0000 C   0  0  0  0  0  0  0  0  0  0  0  0
  2  3  1  0
  3  4  1  0
  4  5  1  0
  5  6  1  0
  4  7  1  0
  7  8  2  0
  9  7  1  1
  9 10  1  0
 10 11  1  0
 11 12  1  1
 12 13  1  0
  9 14  1  0
 14 15  2  0
 15 16  1  0
 16 17  2  0
 17 18  1  0
 18 19  2  0
 11  9  1  0
 19 14  1  0
M  END
$$$$
543703
     RDKit          2D

 16 15  0  0  0  0  0  0  0  0999 V2000
    0.0000    2.2990    0.0000 Cl  0  0  0  0  0  0  0  0  0  0  0  0
    3.0000   -5.1962    0.0000 C   0  0  0  0  0  0  0  0  0  0  0  0
    3.7500   -3.8971    0.0000 C   0  0  0  0  0  0  0  0  0  0  0  0
    3.0000   -2.5981    0.0000 N   0  0  0  0  0  0  0  0  0  0  0  0
    1.5000   -2.5981    0.0000 C   0  0  0  0  0  0  0  0  0  0  0  0
    0.7500   -3.8971    0.0000 C   0  0  0  0  0  0  0  0  0  0  0  0
    3.7500   -1.2990    0.0000 C   0  0  0  0  0  0  0  0  0  0  0  0
    5.2500   -1.2990    0.0000 C   0  0  0  0  0  0  0  0  0  0  0  0
    3.0000    0.0000    0.0000 C   0  0  0  0  0  0  0  0  0  0  0  0
    3.7500    1.2990    0.0000 O   0  0  0  0  0  0  0  0  0  0  0  0
    1.5000    0.0000    0.0000 C   0  0  0  0  0  0  0  0  0  0  0  0
    0.7500   -1.2990    0.0000 C   0  0  0  0  0  0  0  0  0  0  0  0
   -0.7500   -1.2990    0.0000 C   0  0  0  0  0  0  0  0  0  0  0  0
   -1.5000    0.0000    0.0000 C   0  0  0  0  0  0  0  0  0  0  0  0
   -0.7500    1.2990    0.0000 C   0  0  0  0  0  0  0  0  0  0  0  0
    0.7500    1.2990    0.0000 C   0  0  0  0  0  0  0  0  0  0  0  0
  2  3  1  0
  3  4  1  0
  4  5  1  0
  5  6  1  0
  4  7  1  0
  7  8  1  0
  7  9  1  0
  9 10  2  0
  9 11  1  0
 11 12  2  0
 12 13  1  0
 13 14  2  0
 14 15  1  0
 15 16  2  0
 16 11  1  0
M  END
$$$$
674921
     RDKit          2D

 23 24  0  0  0  0  0  0  0  0999 V2000
    0.0000    2.2990    0.0000 Cl  0  0  0  0  0  0  0  0  0  0  0  0
    7.5000   -5.1962    0.0000 C   0  0  0  0  0  0  0  0  0  0  0  0
    6.0000   -5.1962    0.0000 C   0  0  0  0  0  0  0  0  0  0  0  0
    5.2500   -3.8971    0.0000 N   0  0  0  0  0  0  0  0  0  0  0  0
    6.0000   -2.5981    0.0000 C   0  0  0  0  0  0  0  0  0  0  0  0
    7.5000   -2.5981    0.0000 C   0  0  0  0  0  0  0  0  0  0  0  0
    3.7500   -3.8971    0.0000 C   0  0  0  0  0  0  0  0  0  0  0  0
    3.0000   -5.1962    0.0000 C   0  0  0  0  0  0  0  0  0  0  0  0
    3.0000   -2.5981    0.0000 C   0  0  0  0  0  0  0  0  0  0  0  0
    1.5000   -2.5981    0.0000 N   0  0  0  0  0  0  0  0  0  0  0  0
    0.7500   -1.2990    0.0000 C   0  0  0  0  0  0  0  0  0  0  0  0
    1.5000    0.0000    0.0000 C   0  0  0  0  0  0  0  0  0  0  0  0
    0.7500    1.2990    0.0000 C   0  0  0  0  0  0  0  0  0  0  0  0
   -0.7500    1.2990    0.0000 C   0  0  0  0  0  0  0  0  0  0  0  0
   -1.5000    0.0000    0.0000 C   0  0  0  0  0  0  0  0  0  0  0  0
   -0.7500   -1.2990    0.0000 C   0  0  0  0  0  0  0  0  0  0  0  0
   -1.5000   -2.5981    0.0000 S   0  0  0  0  0  0  0  0  0  0  0  0
   -0.7500   -3.8971    0.0000 C   0  0  0  0  0  0  0  0  0  0  0  0
   -1.5000   -5.1962    0.0000 C   0  0  0  0  0  0  0  0  0  0  0  0
   -0.7500   -6.4952    0.0000 C   0  0  0  0  0  0  0  0  0  0  0  0
    0.7500   -6.4952    0.0000 C   0  0  0  0  0  0  0  0  0  0  0  0
    1.5000   -5.1962    0.0000 C   0  0  0  0  0  0  0  0  0  0  0  0
    0.7500   -3.8971    0.0000 C   0  0  0  0  0  0  0  0  0  0  0  0
  2  3  1  0
  3  4  1  0
  4  5  1  0
  5  6  1  0
  4  7  1  0
  7  8  1  0
  7  9  1  0
  9 10  1  0
 10 11  1  0
 11 12  2  0
 12 13  1  0
 13 14  2  0
 14 15  1  0
 15 16  2  0
 16 17  1  0
 17 18  1  0
 18 19  2  0
 19 20  1  0
 20 21  2  0
 21 22  1  0
 22 23  2  0
 23 10  1  0
 16 11  1  0
 23 18  1  0
M  END
$$$$
170395
     RDKit          2D

 27 27  0  0  0  0  0  0  0  0999 V2000
    5.5000    0.0000    0.0000 Cl  0  0  0  0  0  0  0  0  0  0  0  0
   -3.6962  -13.0981    0.0000 C   0  0  0  0  0  0  0  0  0  0  0  0
   -2.3971  -12.3481    0.0000 C   0  0  0  0  0  0  0  0  0  0  0  0
   -2.3971  -10.8481    0.0000 N   0  0  0  0  0  0  0  0  0  0  0  0
   -3.6962  -10.0981    0.0000 C   0  0  0  0  0  0  0  0  0  0  0  0
   -4.9952  -10.8481    0.0000 C   0  0  0  0  0  0  0  0  0  0  0  0
   -1.0981  -10.0981    0.0000 C   0  0  0  0  0  0  0  0  0  0  0  0
   -1.0981   -8.5981    0.0000 C   0  0  0  0  0  0  0  0  0  0  0  0
   -1.0981   -7.0981    0.0000 C   0  0  0  0  0  0  0  0  0  0  0  0
   -1.0981   -5.5981    0.0000 C   0  0  0  0  0  0  0  0  0  0  0  0
    0.2010   -4.8481    0.0000 O   0  0  0  0  0  0  0  0  0  0  0  0
    0.2010   -3.3481    0.0000 C   0  0  0  0  0  0  0  0  0  0  0  0
   -1.0981   -2.5981    0.0000 O   0  0  0  0  0  0  0  0  0  0  0  0
    1.5000   -2.5981    0.0000 C   0  0  0  0  0  0  0  0  0  0  0  0
    2.7990   -1.8481    0.0000 O   0  0  0  0  0  0  0  0  0  0  0  0
    0.7500   -1.2990    0.0000 C   0  0  0  0  0  0  0  0  0  0  0  0
    1.5000    0.0000    0.0000 C   0  0  0  0  0  0  0  0  0  0  0  0
    0.7500    1.2990    0.0000 C   0  0  0  0  0  0  0  0  0  0  0  0
   -0.7500    1.2990    0.0000 C   0  0  0  0  0  0  0  0  0  0  0  0
   -1.5000    0.0000    0.0000 C   0  0  0  0  0  0  0  0  0  0  0  0
   -0.7500   -1.2990    0.0000 C   0  0  0  0  0  0  0  0  0  0  0  0
    2.2500   -3.8971    0.0000 C   0  0  0  0  0  0  0  0  0  0  0  0
    1.5000   -5.1962    0.0000 C   0  0  0  0  0  0  0  0  0  0  0  0
    2.2500   -6.4952    0.0000 C   0  0  0  0  0  0  0  0  0  0  0  0
    3.7500   -6.4952    0.0000 C   0  0  0  0  0  0  0  0  0  0  0  0
    4.5000   -5.1962    0.0000 C   0  0  0  0  0  0  0  0  0  0  0  0
    3.7500   -3.8971    0.0000 C   0  0  0  0  0  0  0  0  0  0  0  0
  2  3  1  0
  3  4  1  0
  4  5  1  0
  5  6  1  0
  4  7  1  0
  7  8  1  0
  8  9  3  0
  9 10  1  0
 10 11  1  0
 11 12  1  0
 12 13  2  0
 12 14  1  0
 14 15  1  0
 14 16  1  0
 16 17  1  0
 17 18  1  0
 18 19  1  0
 19 20  1  0
 20 21  1  0
 14 22  1  0
 22 23  2  0
 23 24  1  0
 24 25  2  0
 25 26  1  0
 26 27  2  0
 21 16  1  0
 27 22  1  0
M  END
$$$$
476314
     RDKit          2D

 26 27  0  0  0  0  0  0  0  0999 V2000
    0.0000    2.2990    0.0000 Cl  0  0  0  0  0  0  0  0  0  0  0  0
    5.2500   -9.0933    0.0000 C   0  0  0  0  0  0  0  0  0  0  0  0
    6.0000   -7.7942    0.0000 C   0  0  0  0  0  0  0  0  0  0  0  0
    5.2500   -6.4952    0.0000 N   0  0  0  0  0  0  0  0  0  0  0  0
    3.7500   -6.4952    0.0000 C   0  0  0  0  0  0  0  0  0  0  0  0
    3.0000   -7.7942    0.0000 C   0  0  0  0  0  0  0  0  0  0  0  0
    6.0000   -5.1962    0.0000 C   0  0  0  0  0  0  0  0  0  0  0  0
    5.2500   -3.8971    0.0000 C   0  0  0  0  0  0  0  0  0  0  0  0
    3.7500   -3.8971    0.0000 C   0  0  0  0  0  0  0  0  0  0  0  0
    3.0000   -2.5981    0.0000 C   0  0  0  0  0  0  0  0  0  0  0  0
    1.5000   -2.5981    0.0000 N   0  0  0  0  0  0  0  0  0  0  0  0
    0.7500   -1.2990    0.0000 C   0  0  0  0  0  0  0  0  0  0  0  0
    1.5000    0.0000    0.0000 C   0  0  0  0  0  0  0  0  0  0  0  0
    0.7500    1.2990    0.0000 C   0  0  0  0  0  0  0  0  0  0  0  0
   -0.7500    1.2990    0.0000 N   0  0  0  0  0  0  0  0  0  0  0  0
   -1.5000    0.0000    0.0000 C   0  0  0  0  0  0  0  0  0  0  0  0
   -3.0000    0.0000    0.0000 C   0  0  0  0  0  0  0  0  0  0  0  0
   -3.7500   -1.2990    0.0000 C   0  0  0  0  0  0  0  0  0  0  0  0
   -5.2500   -1.2990    0.0000 Cl  0  0  0  0  0  0  0  0  0  0  0  0
   -3.0000   -2.5981    0.0000 C   0  0  0  0  0  0  0  0  0  0  0  0
   -1.5000   -2.5981    0.0000 C   0  0  0  0  0  0  0  0  0  0  0  0
   -0.7500   -1.2990    0.0000 C   0  0  0  0  0  0  0  0  0  0  0  0
    3.7500   -1.2990    0.0000 C   0  0  0  0  0  0  0  0  0  0  0  0
    5.2500   -1.2990    0.0000 C   0  0  0  0  0  0  0  0  0  0  0  0
    6.0000   -2.5981    0.0000 C   0  0  0  0  0  0  0  0  0  0  0  0
    7.5000   -2.5981    0.0000 O   0  0  0  0  0  0  0  0  0  0  0  0
  2  3  1  0
  3  4  1  0
  4  5  1  0
  5  6  1  0
  4  7  1  0
  7  8  1  0
  8  9  2  0
  9 10  1  0
 10 11  1  0
 11 12  1  0
 12 13  2  0
 13 14  1  0
 14 15  2  0
 15 16  1  0
 16 17  2  0
 17 18  1  0
 18 19  1  0
 18 20  2  0
 20 21  1  0
 21 22  2  0
 10 23  2  0
 23 24  1  0
 24 25  2  0
 25 26  1  0
 25  8  1  0
 22 12  1  0
 22 16  1  0
M  END
$$$$
674553
     RDKit          2D

 28 29  0  0  0  0  0  0  0  0999 V2000
    0.0000    3.5981    0.0000 Cl  0  0  0  0  0  0  0  0  0  0  0  0
   -6.9567    1.3963    0.0000 C   0  0  0  0  0  0  0  0  0  0  0  0
   -5.4943    1.0625    0.0000 C   0  0  0  0  0  0  0  0  0  0  0  0
   -5.0522   -0.3709    0.0000 N   0  0  0  0  0  0  0  0  0  0  0  0
   -6.0724   -1.4704    0.0000 C   0  0  0  0  0  0  0  0  0  0  0  0
   -7.5348   -1.1367    0.0000 C   0  0  0  0  0  0  0  0  0  0  0  0
   -3.5898   -0.7046    0.0000 C   0  0  0  0  0  0  0  0  0  0  0  0
   -3.1476   -2.1380    0.0000 C   0  0  0  0  0  0  0  0  0  0  0  0
   -1.6852   -2.4718    0.0000 N   0  0  0  0  0  0  0  0  0  0  0  0
   -1.3515   -3.9342    0.0000 C   0  0  0  0  0  0  0  0  0  0  0  0
   -2.5242   -4.8694    0.0000 O   0  0  0  0  0  0  0  0  0  0  0  0
   -0.0000   -4.5850    0.0000 C   0  0  0  0  0  0  0  0  0  0  0  0
    1.3515   -3.9342    0.0000 N   0  0  0  0  0  0  0  0  0  0  0  0
    1.6852   -2.4718    0.0000 C   0  0  0  0  0  0  0  0  0  0  0  0
    3.1476   -2.1380    0.0000 C   0  0  0  0  0  0  0  0  0  0  0  0
    4.1679   -3.2376    0.0000 C   0  0  0  0  0  0  0  0  0  0  0  0
    5.6303   -2.9038    0.0000 C   0  0  0  0  0  0  0  0  0  0  0  0
    6.0724   -1.4704    0.0000 C   0  0  0  0  0  0  0  0  0  0  0  0
    5.0522   -0.3709    0.0000 C   0  0  0  0  0  0  0  0  0  0  0  0
    3.5898   -0.7046    0.0000 C   0  0  0  0  0  0  0  0  0  0  0  0
    2.5695    0.3949    0.0000 F   0  0  0  0  0  0  0  0  0  0  0  0
    0.7500   -1.2990    0.0000 C   0  0  0  0  0  0  0  0  0  0  0  0
    1.5000    0.0000    0.0000 C   0  0  0  0  0  0  0  0  0  0  0  0
    0.7500    1.2990    0.0000 C   0  0  0  0  0  0  0  0  0  0  0  0
    1.5000    2.5981    0.0000 Cl  0  0  0  0  0  0  0  0  0  0  0  0
   -0.7500    1.2990    0.0000 C   0  0  0  0  0  0  0  0  0  0  0  0
   -1.5000    0.0000    0.0000 C   0  0  0  0  0  0  0  0  0  0  0  0
   -0.7500   -1.2990    0.0000 C   0  0  0  0  0  0  0  0  0  0  0  0
  2  3  1  0
  3  4  1  0
  4  5  1  0
  5  6  1  0
  4  7  1  0
  7  8  1  0
  8  9  1  0
  9 10  1  0
 10 11  2  0
 10 12  1  0
 12 13  1  0
 13 14  2  0
 14 15  1  0
 15 16  2  0
 16 17  1  0
 17 18  2  0
 18 19  1  0
 19 20  2  0
 20 21  1  0
 14 22  1  0
 22 23  2  0
 23 24  1  0
 24 25  1  0
 24 26  2  0
 26 27  1  0
 27 28  2  0
 28  9  1  0
 20 15  1  0
 28 22  1  0
M  END
$$$$
21845
     RDKit          2D

 18 17  0  0  0  0  0  0  0  0999 V2000
    0.0000    2.2990    0.0000 Cl  0  0  0  0  0  0  0  0  0  0  0  0
    9.7500   -3.8971    0.0000 C   0  0  0  0  0  0  0  0  0  0  0  0
    8.2500   -3.8971    0.0000 C   0  0  0  0  0  0  0  0  0  0  0  0
    7.5000   -2.5981    0.0000 N   0  0  0  0  0  0  0  0  0  0  0  0
    8.2500   -1.2990    0.0000 C   0  0  0  0  0  0  0  0  0  0  0  0
    9.7500   -1.2990    0.0000 C   0  0  0  0  0  0  0  0  0  0  0  0
    6.0000   -2.5981    0.0000 C   0  0  0  0  0  0  0  0  0  0  0  0
    5.2500   -1.2990    0.0000 C   0  0  0  0  0  0  0  0  0  0  0  0
    3.7500   -1.2990    0.0000 N   0  0  0  0  0  0  0  0  0  0  0  0
    3.0000    0.0000    0.0000 C   0  0  0  0  0  0  0  0  0  0  0  0
    3.7500    1.2990    0.0000 O   0  0  0  0  0  0  0  0  0  0  0  0
    1.5000    0.0000    0.0000 C   0  0  0  0  0  0  0  0  0  0  0  0
    0.7500   -1.2990    0.0000 C   0  0  0  0  0  0  0  0  0  0  0  0
   -0.7500   -1.2990    0.0000 C   0  0  0  0  0  0  0  0  0  0  0  0
   -1.5000    0.0000    0.0000 C   0  0  0  0  0  0  0  0  0  0  0  0
   -3.0000    0.0000    0.0000 N   0  0  0  0  0  0  0  0  0  0  0  0
   -0.7500    1.2990    0.0000 C   0  0  0  0  0  0  0  0  0  0  0  0
    0.7500    1.2990    0.0000 C   0  0  0  0  0  0  0  0  0  0  0  0
  2  3  1  0
  3  4  1  0
  4  5  1  0
  5  6  1  0
  4  7  1  0
  7  8  1  0
  8  9  1  0
  9 10  1  0
 10 11  2  0
 10 12  1  0
 12 13  2  0
 13 14  1  0
 14 15  2  0
 15 16  1  0
 15 17  1  0
 17 18  2  0
 18 12  1  0
M  END
$$$$
674430
     RDKit          2D

 23 23  0  0  0  0  0  0  0  0999 V2000
    5.9786    0.0000    0.0000 Cl  0  0  0  0  0  0  0  0  0  0  0  0
   -4.5205   -8.7470    0.0000 C   0  0  0  0  0  0  0  0  0  0  0  0
   -4.2600   -7.2698    0.0000 C   0  0  0  0  0  0  0  0  0  0  0  0
   -2.8505   -6.7567    0.0000 N   0  0  0  0  0  0  0  0  0  0  0  0
   -1.7014   -7.7209    0.0000 C   0  0  0  0  0  0  0  0  0  0  0  0
   -1.9619   -9.1981    0.0000 C   0  0  0  0  0  0  0  0  0  0  0  0
   -2.5900   -5.2795    0.0000 C   0  0  0  0  0  0  0  0  0  0  0  0
   -1.1805   -4.7665    0.0000 C   0  0  0  0  0  0  0  0  0  0  0  0
   -0.9200   -3.2893    0.0000 O   0  0  0  0  0  0  0  0  0  0  0  0
    0.4895   -2.7762    0.0000 C   0  0  0  0  0  0  0  0  0  0  0  0
    1.6386   -3.7404    0.0000 O   0  0  0  0  0  0  0  0  0  0  0  0
    0.7500   -1.2990    0.0000 C   0  0  0  0  0  0  0  0  0  0  0  0
    1.5000    0.0000    0.0000 C   0  0  0  0  0  0  0  0  0  0  0  0
    0.7500    1.2990    0.0000 C   0  0  0  0  0  0  0  0  0  0  0  0
   -0.7500    1.2990    0.0000 C   0  0  0  0  0  0  0  0  0  0  0  0
   -1.5000    0.0000    0.0000 C   0  0  0  0  0  0  0  0  0  0  0  0
   -0.7500   -1.2990    0.0000 C   0  0  0  0  0  0  0  0  0  0  0  0
    2.1595   -1.8121    0.0000 C   0  0  0  0  0  0  0  0  0  0  0  0
    2.4200   -3.2893    0.0000 C   0  0  0  0  0  0  0  0  0  0  0  0
    3.8296   -3.8023    0.0000 C   0  0  0  0  0  0  0  0  0  0  0  0
    4.9786   -2.8381    0.0000 C   0  0  0  0  0  0  0  0  0  0  0  0
    4.7181   -1.3609    0.0000 C   0  0  0  0  0  0  0  0  0  0  0  0
    3.3086   -0.8479    0.0000 C   0  0  0  0  0  0  0  0  0  0  0  0
  2  3  1  0
  3  4  1  0
  4  5  1  0
  5  6  1  0
  4  7  1  0
  7  8  1  0
  8  9  1  0
  9 10  1  0
 10 11  2  0
 10 12  1  0
 12 13  1  0
 13 14  1  0
 14 15  1  0
 15 16  1  0
 16 17  1  0
 12 18  1  0
 18 19  1  0
 19 20  1  0
 20 21  1  0
 21 22  1  0
 22 23  1  0
 17 12  1  0
 23 18  1  0
M  END
$$$$
557467
     RDKit          2D

 26 27  0  0  0  0  0  0  0  0999 V2000
    4.7500    0.0000    0.0000 Cl  0  0  0  0  0  0  0  0  0  0  0  0
    3.7500   -1.2990    0.0000 C   0  0  0  0  0  0  0  0  0  0  0  0
    3.0000    0.0000    0.0000 C   0  0  0  0  0  0  0  0  0  0  0  0
    1.5000    0.0000    0.0000 N   0  0  0  0  0  0  0  0  0  0  0  0
    0.7500   -1.2990    0.0000 C   0  0  0  0  0  0  0  0  0  0  0  0
   -0.7500   -1.2990    0.0000 C   0  0  0  0  0  0  0  0  0  0  0  0
   -1.5000   -2.5981    0.0000 C   0  0  0  0  0  0  0  0  0  0  0  0
   -0.7500   -3.8971    0.0000 O   0  0  0  0  0  0  0  0  0  0  0  0
   -3.0000   -2.5981    0.0000 O   0  0  0  0  0  0  0  0  0  0  0  0
   -1.5000    0.0000    0.0000 C   0  0  0  0  0  0  0  0  0  0  0  0
   -3.0000    0.0000    0.0000 O   0  0  0  0  0  0  0  0  0  0  0  0
   -0.7500    1.2990    0.0000 C   0  0  0  0  0  0  0  0  0  0  0  0
   -1.5000    2.5981    0.0000 C   0  0  0  0  0  0  0  0  0  0  0  0
   -0.7500    3.8971    0.0000 C   0  0  0  0  0  0  0  0  0  0  0  0
   -1.5000    5.1962    0.0000 F   0  0  0  0  0  0  0  0  0  0  0  0
    0.7500    3.8971    0.0000 C   0  0  0  0  0  0  0  0  0  0  0  0
    1.5000    5.1962    0.0000 N   0  0  0  0  0  0  0  0  0  0  0  0
    3.0000    5.1962    0.0000 C   0  0  0  0  0  0  0  0  0  0  0  0
    3.7500    6.4952    0.0000 C   0  0  0  0  0  0  0  0  0  0  0  0
    3.0000    7.7942    0.0000 N   0  0  0  0  0  0  0  0  0  0  0  0
    1.5000    7.7942    0.0000 C   0  0  0  0  0  0  0  0  0  0  0  0
    0.7500    9.0933    0.0000 C   0  0  0  0  0  0  0  0  0  0  0  0
    0.7500    6.4952    0.0000 C   0  0  0  0  0  0  0  0  0  0  0  0
    1.5000    2.5981    0.0000 C   0  0  0  0  0  0  0  0  0  0  0  0
    3.0000    2.5981    0.0000 F   0  0  0  0  0  0  0  0  0  0  0  0
    0.7500    1.2990    0.0000 C   0  0  0  0  0  0  0  0  0  0  0  0
  2  3  1  0
  3  4  1  0
  4  5  1  0
  5  6  2  0
  6  7  1  0
  7  8  2  0
  7  9  1  0
  6 10  1  0
 10 11  2  0
 10 12  1  0
 12 13  2  0
 13 14  1  0
 14 15  1  0
 14 16  2  0
 16 17  1  0
 17 18  1  0
 18 19  1  0
 19 20  1  0
 20 21  1  0
 21 22  1  0
 21 23  1  0
 16 24  1  0
 24 25  1  0
 24 26  2  0
 26  4  1  0
 26 12  1  0
 23 17  1  0
M  END
$$$$
547402
     RDKit          2D

 19 19  0  0  0  0  0  0  0  0999 V2000
    5.9786    0.0000    0.0000 Cl  0  0  0  0  0  0  0  0  0  0  0  0
   -2.5900   -5.2795    0.0000 C   0  0  0  0  0  0  0  0  0  0  0  0
   -1.1805   -4.7665    0.0000 C   0  0  0  0  0  0  0  0  0  0  0  0
   -0.9200   -3.2893    0.0000 O   0  0  0  0  0  0  0  0  0  0  0  0
    0.4895   -2.7762    0.0000 C   0  0  0  0  0  0  0  0  0  0  0  0
    1.6386   -3.7404    0.0000 O   0  0  0  0  0  0  0  0  0  0  0  0
    0.7500   -1.2990    0.0000 C   0  0  0  0  0  0  0  0  0  0  0  0
    1.5000    0.0000    0.0000 C   0  0  0  0  0  0  0  0  0  0  0  0
    0.7500    1.2990    0.0000 C   0  0  0  0  0  0  0  0  0  0  0  0
   -0.7500    1.2990    0.0000 N   0  0  0  0  0  0  0  0  0  0  0  0
   -1.5000    2.5981    0.0000 C   0  0  0  0  0  0  0  0  0  0  0  0
   -1.5000    0.0000    0.0000 C   0  0  0  0  0  0  0  0  0  0  0  0
   -0.7500   -1.2990    0.0000 C   0  0  0  0  0  0  0  0  0  0  0  0
    2.1595   -1.8121    0.0000 C   0  0  0  0  0  0  0  0  0  0  0  0
    2.4200   -3.2893    0.0000 C   0  0  0  0  0  0  0  0  0  0  0  0
    3.8296   -3.8023    0.0000 C   0  0  0  0  0  0  0  0  0  0  0  0
    4.9786   -2.8381    0.0000 C   0  0  0  0  0  0  0  0  0  0  0  0
    4.7181   -1.3609    0.0000 C   0  0  0  0  0  0  0  0  0  0  0  0
    3.3086   -0.8479    0.0000 C   0  0  0  0  0  0  0  0  0  0  0  0
  2  3  1  0
  3  4  1  0
  4  5  1  0
  5  6  2  0
  5  7  1  0
  7  8  1  0
  8  9  1  0
  9 10  1  0
 10 11  1  0
 10 12  1  0
 12 13  1  0
  7 14  1  0
 14 15  2  0
 15 16  1  0
 16 17  2  0
 17 18  1  0
 18 19  2  0
 13  7  1  0
 19 14  1  0
M  END
$$$$
674616
     RDKit          2D

 35 37  0  0  0  0  0  0  0  0999 V2000
    5.9786    0.0000    0.0000 Cl  0  0  0  0  0  0  0  0  0  0  0  0
   -2.5900   -5.2795    0.0000 C   0  0  0  0  0  0  0  0  0  0  0  0
   -1.1805   -4.7665    0.0000 C   0  0  0  0  0  0  0  0  0  0  0  0
   -0.9200   -3.2893    0.0000 O   0  0  0  0  0  0  0  0  0  0  0  0
    0.4895   -2.7762    0.0000 C   0  0  0  0  0  0  0  0  0  0  0  0
    1.6386   -3.7404    0.0000 O   0  0  0  0  0  0  0  0  0  0  0  0
    0.7500   -1.2990    0.0000 C   0  0  0  0  0  0  0  0  0  0  0  0
    1.5000    0.0000    0.0000 C   0  0  0  0  0  0  0  0  0  0  0  0
    0.7500    1.2990    0.0000 C   0  0  0  0  0  0  0  0  0  0  0  0
   -0.7500    1.2990    0.0000 N   0  0  0  0  0  0  0  0  0  0  0  0
   -1.5000    2.5981    0.0000 C   0  0  0  0  0  0  0  0  0  0  0  0
   -0.7500    3.8971    0.0000 C   0  0  0  0  0  0  0  0  0  0  0  0
   -1.5000    5.1962    0.0000 C   0  0  0  0  0  0  0  0  0  0  0  0
   -2.7990    4.4462    0.0000 C   0  0  0  0  0  0  0  0  0  0  0  0
   -4.0981    3.6962    0.0000 N   0  0  0  0  0  0  0  0  0  0  0  0
   -2.2500    6.4952    0.0000 C   0  0  0  0  0  0  0  0  0  0  0  0
   -1.5000    7.7942    0.0000 C   0  0  0  0  0  0  0  0  0  0  0  0
   -2.2500    9.0933    0.0000 C   0  0  0  0  0  0  0  0  0  0  0  0
   -3.7500    9.0933    0.0000 C   0  0  0  0  0  0  0  0  0  0  0  0
   -4.5000    7.7942    0.0000 C   0  0  0  0  0  0  0  0  0  0  0  0
   -3.7500    6.4952    0.0000 C   0  0  0  0  0  0  0  0  0  0  0  0
   -0.2010    5.9462    0.0000 C   0  0  0  0  0  0  0  0  0  0  0  0
    1.0981    5.1962    0.0000 C   0  0  0  0  0  0  0  0  0  0  0  0
    2.3971    5.9462    0.0000 C   0  0  0  0  0  0  0  0  0  0  0  0
    2.3971    7.4462    0.0000 C   0  0  0  0  0  0  0  0  0  0  0  0
    1.0981    8.1962    0.0000 C   0  0  0  0  0  0  0  0  0  0  0  0
   -0.2010    7.4462    0.0000 C   0  0  0  0  0  0  0  0  0  0  0  0
   -1.5000    0.0000    0.0000 C   0  0  0  0  0  0  0  0  0  0  0  0
   -0.7500   -1.2990    0.0000 C   0  0  0  0  0  0  0  0  0  0  0  0
    2.1595   -1.8121    0.0000 C   0  0  0  0  0  0  0  0  0  0  0  0
    2.4200   -3.2893    0.0000 C   0  0  0  0  0  0  0  0  0  0  0  0
    3.8296   -3.8023    0.0000 C   0  0  0  0  0  0  0  0  0  0  0  0
    4.9786   -2.8381    0.0000 C   0  0  0  0  0  0  0  0  0  0  0  0
    4.7181   -1.3609    0.0000 C   0  0  0  0  0  0  0  0  0  0  0  0
    3.3086   -0.8479    0.0000 C   0  0  0  0  0  0  0  0  0  0  0  0
  2  3  1  0
  3  4  1  0
  4  5  1  0
  5  6  2  0
  5  7  1  0
  7  8  1  0
  8  9  1  0
  9 10  1  0
 10 11  1  0
 11 12  1  0
 12 13  1  0
 13 14  1  0
 14 15  3  0
 13 16  1  0
 16 17  2  0
 17 18  1  0
 18 19  2  0
 19 20  1  0
 20 21  2  0
 13 22  1  0
 22 23  2  0
 23 24  1  0
 24 25  2  0
 25 26  1  0
 26 27  2  0
 10 28  1  0
 28 29  1  0
  7 30  1  0
 30 31  2  0
 31 32  1  0
 32 33  2  0
 33 34  1  0
 34 35  2  0
 29  7  1  0
 21 16  1  0
 27 22  1  0
 35 30  1  0
M  END
$$$$
674998
     RDKit          2D

 27 28  0  0  0  0  0  0  0  0999 V2000
    5.9786    0.0000    0.0000 Cl  0  0  0  0  0  0  0  0  0  0  0  0
   -2.5900   -5.2795    0.0000 C   0  0  0  0  0  0  0  0  0  0  0  0
   -1.1805   -4.7665    0.0000 C   0  0  0  0  0  0  0  0  0  0  0  0
   -0.9200   -3.2893    0.0000 O   0  0  0  0  0  0  0  0  0  0  0  0
    0.4895   -2.7762    0.0000 C   0  0  0  0  0  0  0  0  0  0  0  0
    1.6386   -3.7404    0.0000 O   0  0  0  0  0  0  0  0  0  0  0  0
    0.7500   -1.2990    0.0000 C   0  0  0  0  0  0  0  0  0  0  0  0
    1.5000    0.0000    0.0000 C   0  0  0  0  0  0  0  0  0  0  0  0
    0.7500    1.2990    0.0000 C   0  0  0  0  0  0  0  0  0  0  0  0
   -0.7500    1.2990    0.0000 N   0  0  0  0  0  0  0  0  0  0  0  0
   -1.5000    2.5981    0.0000 C   0  0  0  0  0  0  0  0  0  0  0  0
   -0.7500    3.8971    0.0000 C   0  0  0  0  0  0  0  0  0  0  0  0
   -1.5000    5.1962    0.0000 C   0  0  0  0  0  0  0  0  0  0  0  0
   -0.7500    6.4952    0.0000 C   0  0  0  0  0  0  0  0  0  0  0  0
   -1.5000    7.7942    0.0000 C   0  0  0  0  0  0  0  0  0  0  0  0
   -3.0000    7.7942    0.0000 C   0  0  0  0  0  0  0  0  0  0  0  0
   -3.7500    9.0933    0.0000 N   0  0  0  0  0  0  0  0  0  0  0  0
   -3.7500    6.4952    0.0000 C   0  0  0  0  0  0  0  0  0  0  0  0
   -3.0000    5.1962    0.0000 C   0  0  0  0  0  0  0  0  0  0  0  0
   -1.5000    0.0000    0.0000 C   0  0  0  0  0  0  0  0  0  0  0  0
   -0.7500   -1.2990    0.0000 C   0  0  0  0  0  0  0  0  0  0  0  0
    2.1595   -1.8121    0.0000 C   0  0  0  0  0  0  0  0  0  0  0  0
    2.4200   -3.2893    0.0000 C   0  0  0  0  0  0  0  0  0  0  0  0
    3.8296   -3.8023    0.0000 C   0  0  0  0  0  0  0  0  0  0  0  0
    4.9786   -2.8381    0.0000 C   0  0  0  0  0  0  0  0  0  0  0  0
    4.7181   -1.3609    0.0000 C   0  0  0  0  0  0  0  0  0  0  0  0
    3.3086   -0.8479    0.0000 C   0  0  0  0  0  0  0  0  0  0  0  0
  2  3  1  0
  3  4  1  0
  4  5  1  0
  5  6  2  0
  5  7  1  0
  7  8  1  0
  8  9  1  0
  9 10  1  0
 10 11  1  0
 11 12  1  0
 12 13  1  0
 13 14  2  0
 14 15  1  0
 15 16  2  0
 16 17  1  0
 16 18  1  0
 18 19  2  0
 10 20  1  0
 20 21  1  0
  7 22  1  0
 22 23  2  0
 23 24  1  0
 24 25  2  0
 25 26  1  0
 26 27  2  0
 21  7  1  0
 19 13  1  0
 27 22  1  0
M  END
$$$$
674285
     RDKit          2D

 31 33  0  0  0  0  0  0  0  0999 V2000
    2.5000    0.0000    0.0000 Cl  0  0  0  0  0  0  0  0  0  0  0  0
   -6.0000  -10.3923    0.0000 C   0  0  0  0  0  0  0  0  0  0  0  0
   -5.2500   -9.0933    0.0000 C   0  0  0  0  0  0  0  0  0  0  0  0
   -3.7500   -9.0933    0.0000 O   0  0  0  0  0  0  0  0  0  0  0  0
   -3.0000   -7.7942    0.0000 C   0  0  0  0  0  0  0  0  0  0  0  0
   -3.7500   -6.4952    0.0000 O   0  0  0  0  0  0  0  0  0  0  0  0
   -1.5000   -7.7942    0.0000 N   0  0  0  0  0  0  0  0  0  0  0  0
   -0.7500   -6.4952    0.0000 C   0  0  0  0  0  0  0  0  0  0  0  0
    0.7500   -6.4952    0.0000 C   0  0  0  0  0  0  0  0  0  0  0  0
    1.5000   -5.1962    0.0000 C   0  0  0  0  0  0  0  0  0  0  0  0
    0.7500   -3.8971    0.0000 C   0  0  0  0  0  0  0  0  0  0  0  0
    1.5000   -2.5981    0.0000 S   0  0  0  0  0  0  0  0  0  0  0  0
    0.7500   -1.2990    0.0000 C   0  0  0  0  0  0  0  0  0  0  0  0
    1.5000    0.0000    0.0000 C   0  0  0  0  0  0  0  0  0  0  0  0
    0.7500    1.2990    0.0000 C   0  0  0  0  0  0  0  0  0  0  0  0
   -0.7500    1.2990    0.0000 C   0  0  0  0  0  0  0  0  0  0  0  0
   -1.5000    0.0000    0.0000 C   0  0  0  0  0  0  0  0  0  0  0  0
   -0.7500   -1.2990    0.0000 C   0  0  0  0  0  0  0  0  0  0  0  0
   -1.5000   -2.5981    0.0000 N   0  0  0  0  0  0  0  0  0  0  0  0
   -3.0000   -2.5981    0.0000 C   0  0  0  0  0  0  0  0  0  0  0  0
   -3.7500   -3.8971    0.0000 O   0  0  0  0  0  0  0  0  0  0  0  0
   -3.7500   -1.2990    0.0000 C   0  0  0  0  0  0  0  0  0  0  0  0
   -5.2500   -1.2990    0.0000 C   0  0  0  0  0  0  0  0  0  0  0  0
   -6.0000    0.0000    0.0000 N   0  0  0  0  0  0  0  0  0  0  0  0
   -5.2500    1.2990    0.0000 C   0  0  0  0  0  0  0  0  0  0  0  0
   -6.0000    2.5981    0.0000 C   0  0  0  0  0  0  0  0  0  0  0  0
   -7.5000    2.5981    0.0000 O   0  0  0  0  0  0  0  0  0  0  0  0
   -8.2500    1.2990    0.0000 C   0  0  0  0  0  0  0  0  0  0  0  0
   -7.5000    0.0000    0.0000 C   0  0  0  0  0  0  0  0  0  0  0  0
   -0.7500   -3.8971    0.0000 C   0  0  0  0  0  0  0  0  0  0  0  0
   -1.5000   -5.1962    0.0000 C   0  0  0  0  0  0  0  0  0  0  0  0
  2  3  1  0
  3  4  1  0
  4  5  1  0
  5  6  2  0
  5  7  1  0
  7  8  1  0
  8  9  2  0
  9 10  1  0
 10 11  2  0
 11 12  1  0
 12 13  1  0
 13 14  2  0
 14 15  1  0
 15 16  2  0
 16 17  1  0
 17 18  2  0
 18 19  1  0
 19 20  1  0
 20 21  2  0
 20 22  1  0
 22 23  1  0
 23 24  1  0
 24 25  1  0
 25 26  1  0
 26 27  1  0
 27 28  1  0
 28 29  1  0
 19 30  1  0
 30 31  2  0
 31  8  1  0
 30 11  1  0
 18 13  1  0
 29 24  1  0
M  END
$$$$
674916
     RDKit          2D

 33 34  0  0  0  0  0  0  0  0999 V2000
    0.0000   10.5303    0.0000 Cl  0  0  0  0  0  0  0  0  0  0  0  0
   10.2760    2.5981    0.0000 C   0  0  0  0  0  0  0  0  0  0  0  0
    9.5260    1.2990    0.0000 C   0  0  0  0  0  0  0  0  0  0  0  0
    8.0260    1.2990    0.0000 O   0  0  0  0  0  0  0  0  0  0  0  0
    7.2760    0.0000    0.0000 C   0  0  0  0  0  0  0  0  0  0  0  0
    8.0260   -1.2990    0.0000 O   0  0  0  0  0  0  0  0  0  0  0  0
    5.7760    0.0000    0.0000 O   0  0  0  0  0  0  0  0  0  0  0  0
    5.0260   -1.2990    0.0000 C   0  0  0  0  0  0  0  0  0  0  0  0
    5.7760   -2.5981    0.0000 C   0  0  0  0  0  0  0  0  0  0  0  0
    3.5260   -1.2990    0.0000 O   0  0  0  0  0  0  0  0  0  0  0  0
    2.7760    0.0000    0.0000 C   0  0  0  0  0  0  0  0  0  0  0  0
    3.5260    1.2990    0.0000 O   0  0  0  0  0  0  0  0  0  0  0  0
    1.2760    0.0000    0.0000 C   0  0  0  0  0  0  0  0  0  0  0  0
    0.3943    1.2135    0.0000 N   0  0  0  0  0  0  0  0  0  0  0  0
   -1.0323    0.7500    0.0000 C   0  0  0  0  0  0  0  0  0  0  0  0
   -1.0323   -0.7500    0.0000 S   0  0  0  0  0  0  0  0  0  0  0  0
    0.3943   -1.2135    0.0000 C   0  0  0  0  0  0  0  0  0  0  0  0
    1.6933   -1.9635    0.0000 C   0  0  0  0  0  0  0  0  0  0  0  0
   -0.2158   -2.5838    0.0000 C   0  0  0  0  0  0  0  0  0  0  0  0
   -1.4958    2.1766    0.0000 C   0  0  0  0  0  0  0  0  0  0  0  0
   -2.8323    2.8576    0.0000 N   0  0  0  0  0  0  0  0  0  0  0  0
   -2.9108    4.3555    0.0000 C   0  0  0  0  0  0  0  0  0  0  0  0
   -1.6528    5.1725    0.0000 O   0  0  0  0  0  0  0  0  0  0  0  0
   -4.2473    5.0365    0.0000 C   0  0  0  0  0  0  0  0  0  0  0  0
   -5.5053    4.2195    0.0000 N   0  0  0  0  0  0  0  0  0  0  0  0
   -4.3258    6.5344    0.0000 C   0  0  0  0  0  0  0  0  0  0  0  0
   -3.0678    7.3514    0.0000 C   0  0  0  0  0  0  0  0  0  0  0  0
   -3.1463    8.8493    0.0000 C   0  0  0  0  0  0  0  0  0  0  0  0
   -4.4828    9.5303    0.0000 C   0  0  0  0  0  0  0  0  0  0  0  0
   -5.7409    8.7134    0.0000 C   0  0  0  0  0  0  0  0  0  0  0  0
   -5.6623    7.2154    0.0000 C   0  0  0  0  0  0  0  0  0  0  0  0
   -0.0692    2.6401    0.0000 C   0  0  0  0  0  0  0  0  0  0  0  0
    0.6118    3.9766    0.0000 O   0  0  0  0  0  0  0  0  0  0  0  0
  2  3  1  0
  3  4  1  0
  4  5  1  0
  5  6  2  0
  5  7  1  0
  7  8  1  0
  8  9  1  0
  8 10  1  0
 10 11  1  0
 11 12  2  0
 13 11  1  1
 13 14  1  0
 14 15  1  0
 15 16  1  6
 16 17  1  0
 17 18  1  0
 17 19  1  0
 15 20  1  0
 20 21  1  6
 21 22  1  0
 22 23  2  0
 22 24  1  0
 24 25  1  6
 24 26  1  0
 26 27  2  0
 27 28  1  0
 28 29  2  0
 29 30  1  0
 30 31  2  0
 20 32  1  0
 32 33  2  0
 17 13  1  0
 32 14  1  0
 31 26  1  0
M  END
$$$$
674782
     RDKit          2D

 32 33  0  0  0  0  0  0  0  0999 V2000
    0.0000    7.1819    0.0000 Cl  0  0  0  0  0  0  0  0  0  0  0  0
   11.0995    1.8899    0.0000 C   0  0  0  0  0  0  0  0  0  0  0  0
    9.7292    2.5000    0.0000 C   0  0  0  0  0  0  0  0  0  0  0  0
    8.5157    1.6183    0.0000 O   0  0  0  0  0  0  0  0  0  0  0  0
    7.1454    2.2284    0.0000 C   0  0  0  0  0  0  0  0  0  0  0  0
    6.9886    3.7202    0.0000 O   0  0  0  0  0  0  0  0  0  0  0  0
    5.9318    1.3467    0.0000 C   0  0  0  0  0  0  0  0  0  0  0  0
    6.0886   -0.1450    0.0000 C   0  0  0  0  0  0  0  0  0  0  0  0
    7.4589   -0.7552    0.0000 C   0  0  0  0  0  0  0  0  0  0  0  0
    7.6157   -2.2469    0.0000 C   0  0  0  0  0  0  0  0  0  0  0  0
    6.4022   -3.1286    0.0000 C   0  0  0  0  0  0  0  0  0  0  0  0
    6.5590   -4.6204    0.0000 C   0  0  0  0  0  0  0  0  0  0  0  0
    7.9293   -5.2305    0.0000 C   0  0  0  0  0  0  0  0  0  0  0  0
    9.1429   -4.3488    0.0000 C   0  0  0  0  0  0  0  0  0  0  0  0
    8.9861   -2.8570    0.0000 C   0  0  0  0  0  0  0  0  0  0  0  0
    4.5615    1.9568    0.0000 N   0  0  0  0  0  0  0  0  0  0  0  0
    4.4047    3.4486    0.0000 C   0  0  0  0  0  0  0  0  0  0  0  0
    5.6183    4.3303    0.0000 C   0  0  0  0  0  0  0  0  0  0  0  0
    3.0344    4.0587    0.0000 C   0  0  0  0  0  0  0  0  0  0  0  0
    2.8776    5.5505    0.0000 O   0  0  0  0  0  0  0  0  0  0  0  0
    1.8209    3.1771    0.0000 N   0  0  0  0  0  0  0  0  0  0  0  0
    1.8209    1.6771    0.0000 C   0  0  0  0  0  0  0  0  0  0  0  0
    0.3943    1.2135    0.0000 C   0  0  0  0  0  0  0  0  0  0  0  0
   -0.4874    2.4271    0.0000 C   0  0  0  0  0  0  0  0  0  0  0  0
    0.3943    3.6406    0.0000 C   0  0  0  0  0  0  0  0  0  0  0  0
   -0.0692    5.0672    0.0000 C   0  0  0  0  0  0  0  0  0  0  0  0
   -1.5364    5.3790    0.0000 O   0  0  0  0  0  0  0  0  0  0  0  0
    0.9345    6.1819    0.0000 O   0  0  0  0  0  0  0  0  0  0  0  0
    1.2760    0.0000    0.0000 S   0  0  0  0  0  0  0  0  0  0  0  0
    0.3943   -1.2135    0.0000 C   0  0  0  0  0  0  0  0  0  0  0  0
   -1.0323   -0.7500    0.0000 C   0  0  0  0  0  0  0  0  0  0  0  0
   -1.0323    0.7500    0.0000 S   0  0  0  0  0  0  0  0  0  0  0  0
  2  3  1  0
  3  4  1  0
  4  5  1  0
  5  6  2  0
  5  7  1  0
  7  8  1  6
  8  9  1  0
  9 10  1  0
 10 11  2  0
 11 12  1  0
 12 13  2  0
 13 14  1  0
 14 15  2  0
  7 16  1  0
 16 17  1  0
 17 18  1  6
 17 19  1  0
 19 20  2  0
 19 21  1  0
 21 22  1  0
 22 23  1  0
 23 24  1  0
 24 25  1  0
 25 26  1  1
 26 27  2  0
 26 28  1  0
 23 29  1  0
 29 30  1  0
 30 31  1  0
 31 32  1  0
 15 10  1  0
 25 21  1  0
 32 23  1  0
M  END
$$$$
674485
     RDKit          2D

 37 38  0  0  0  0  0  0  0  0999 V2000
    0.0000    7.4952    0.0000 Cl  0  0  0  0  0  0  0  0  0  0  0  0
    9.7500   -3.8971    0.0000 C   0  0  0  0  0  0  0  0  0  0  0  0
    8.2500   -3.8971    0.0000 C   0  0  0  0  0  0  0  0  0  0  0  0
    7.5000   -2.5981    0.0000 O   0  0  0  0  0  0  0  0  0  0  0  0
    6.0000   -2.5981    0.0000 C   0  0  0  0  0  0  0  0  0  0  0  0
    5.2500   -3.8971    0.0000 O   0  0  0  0  0  0  0  0  0  0  0  0
    5.2500   -1.2990    0.0000 C   0  0  0  0  0  0  0  0  0  0  0  0
    6.0000   -0.0000    0.0000 C   0  0  0  0  0  0  0  0  0  0  0  0
    7.5000   -0.0000    0.0000 C   0  0  0  0  0  0  0  0  0  0  0  0
    8.2500    1.2990    0.0000 C   0  0  0  0  0  0  0  0  0  0  0  0
    9.7500    1.2990    0.0000 C   0  0  0  0  0  0  0  0  0  0  0  0
   10.5000    2.5981    0.0000 C   0  0  0  0  0  0  0  0  0  0  0  0
    9.7500    3.8971    0.0000 C   0  0  0  0  0  0  0  0  0  0  0  0
    8.2500    3.8971    0.0000 C   0  0  0  0  0  0  0  0  0  0  0  0
    7.5000    2.5981    0.0000 C   0  0  0  0  0  0  0  0  0  0  0  0
    3.7500   -1.2990    0.0000 N   0  0  0  0  0  0  0  0  0  0  0  0
    3.0000   -2.5981    0.0000 C   0  0  0  0  0  0  0  0  0  0  0  0
    3.7500   -3.8971    0.0000 C   0  0  0  0  0  0  0  0  0  0  0  0
    1.5000   -2.5981    0.0000 C   0  0  0  0  0  0  0  0  0  0  0  0
    0.7500   -3.8971    0.0000 O   0  0  0  0  0  0  0  0  0  0  0  0
    0.7500   -1.2990    0.0000 N   0  0  0  0  0  0  0  0  0  0  0  0
    1.5000    0.0000    0.0000 C   0  0  0  0  0  0  0  0  0  0  0  0
    0.7500    1.2990    0.0000 C   0  0  0  0  0  0  0  0  0  0  0  0
    1.5000    2.5981    0.0000 C   0  0  0  0  0  0  0  0  0  0  0  0
    0.7500    3.8971    0.0000 C   0  0  0  0  0  0  0  0  0  0  0  0
    1.5000    5.1962    0.0000 O   0  0  0  0  0  0  0  0  0  0  0  0
    3.0000    5.1962    0.0000 C   0  0  0  0  0  0  0  0  0  0  0  0
   -0.7500    3.8971    0.0000 C   0  0  0  0  0  0  0  0  0  0  0  0
   -1.5000    5.1962    0.0000 O   0  0  0  0  0  0  0  0  0  0  0  0
   -0.7500    6.4952    0.0000 C   0  0  0  0  0  0  0  0  0  0  0  0
   -1.5000    2.5981    0.0000 C   0  0  0  0  0  0  0  0  0  0  0  0
   -0.7500    1.2990    0.0000 C   0  0  0  0  0  0  0  0  0  0  0  0
   -1.5000    0.0000    0.0000 C   0  0  0  0  0  0  0  0  0  0  0  0
   -0.7500   -1.2990    0.0000 C   0  0  0  0  0  0  0  0  0  0  0  0
   -1.5000   -2.5981    0.0000 C   0  0  0  0  0  0  0  0  0  0  0  0
   -0.7500   -3.8971    0.0000 O   0  0  0  0  0  0  0  0  0  0  0  0
   -3.0000   -2.5981    0.0000 O   0  0  0  0  0  0  0  0  0  0  0  0
  2  3  1  0
  3  4  1  0
  4  5  1  0
  5  6  2  0
  5  7  1  0
  7  8  1  1
  8  9  1  0
  9 10  1  0
 10 11  2  0
 11 12  1  0
 12 13  2  0
 13 14  1  0
 14 15  2  0
  7 16  1  0
 16 17  1  0
 17 18  1  1
 17 19  1  0
 19 20  2  0
 19 21  1  0
 21 22  1  0
 22 23  1  0
 23 24  2  0
 24 25  1  0
 25 26  1  0
 26 27  1  0
 25 28  2  0
 28 29  1  0
 29 30  1  0
 28 31  1  0
 31 32  2  0
 32 33  1  0
 33 34  1  0
 34 35  1  6
 35 36  2  0
 35 37  1  0
 15 10  1  0
 34 21  1  0
 32 23  1  0
M  END
$$$$
674962
     RDKit          2D

 33 34  0  0  0  0  0  0  0  0999 V2000
    0.0000    2.2990    0.0000 Cl  0  0  0  0  0  0  0  0  0  0  0  0
    9.7500   -6.4952    0.0000 C   0  0  0  0  0  0  0  0  0  0  0  0
    8.2500   -6.4952    0.0000 C   0  0  0  0  0  0  0  0  0  0  0  0
    7.5000   -5.1962    0.0000 O   0  0  0  0  0  0  0  0  0  0  0  0
    6.0000   -5.1962    0.0000 C   0  0  0  0  0  0  0  0  0  0  0  0
    5.2500   -6.4952    0.0000 O   0  0  0  0  0  0  0  0  0  0  0  0
    5.2500   -3.8971    0.0000 C   0  0  0  0  0  0  0  0  0  0  0  0
    6.0000   -2.5981    0.0000 C   0  0  0  0  0  0  0  0  0  0  0  0
    7.5000   -2.5981    0.0000 C   0  0  0  0  0  0  0  0  0  0  0  0
    8.2500   -1.2990    0.0000 C   0  0  0  0  0  0  0  0  0  0  0  0
    9.7500   -1.2990    0.0000 C   0  0  0  0  0  0  0  0  0  0  0  0
   10.5000   -0.0000    0.0000 C   0  0  0  0  0  0  0  0  0  0  0  0
    9.7500    1.2990    0.0000 C   0  0  0  0  0  0  0  0  0  0  0  0
    8.2500    1.2990    0.0000 C   0  0  0  0  0  0  0  0  0  0  0  0
    7.5000   -0.0000    0.0000 C   0  0  0  0  0  0  0  0  0  0  0  0
    3.7500   -3.8971    0.0000 N   0  0  0  0  0  0  0  0  0  0  0  0
    3.0000   -5.1962    0.0000 C   0  0  0  0  0  0  0  0  0  0  0  0
    3.7500   -6.4952    0.0000 C   0  0  0  0  0  0  0  0  0  0  0  0
    1.5000   -5.1962    0.0000 C   0  0  0  0  0  0  0  0  0  0  0  0
    0.7500   -6.4952    0.0000 O   0  0  0  0  0  0  0  0  0  0  0  0
    0.7500   -3.8971    0.0000 N   0  0  0  0  0  0  0  0  0  0  0  0
    1.5000   -2.5981    0.0000 C   0  0  0  0  0  0  0  0  0  0  0  0
    0.7500   -1.2990    0.0000 C   0  0  0  0  0  0  0  0  0  0  0  0
    1.5000    0.0000    0.0000 C   0  0  0  0  0  0  0  0  0  0  0  0
    0.7500    1.2990    0.0000 C   0  0  0  0  0  0  0  0  0  0  0  0
   -0.7500    1.2990    0.0000 C   0  0  0  0  0  0  0  0  0  0  0  0
   -1.5000    0.0000    0.0000 C   0  0  0  0  0  0  0  0  0  0  0  0
   -0.7500   -1.2990    0.0000 C   0  0  0  0  0  0  0  0  0  0  0  0
   -1.5000   -2.5981    0.0000 C   0  0  0  0  0  0  0  0  0  0  0  0
   -0.7500   -3.8971    0.0000 C   0  0  0  0  0  0  0  0  0  0  0  0
   -1.5000   -5.1962    0.0000 C   0  0  0  0  0  0  0  0  0  0  0  0
   -0.7500   -6.4952    0.0000 O   0  0  0  0  0  0  0  0  0  0  0  0
   -3.0000   -5.1962    0.0000 O   0  0  0  0  0  0  0  0  0  0  0  0
  2  3  1  0
  3  4  1  0
  4  5  1  0
  5  6  2  0
  5  7  1  0
  7  8  1  1
  8  9  1  0
  9 10  1  0
 10 11  2  0
 11 12  1  0
 12 13  2  0
 13 14  1  0
 14 15  2  0
  7 16  1  0
 16 17  1  0
 17 18  1  1
 17 19  1  0
 19 20  2  0
 19 21  1  0
 21 22  1  0
 22 23  1  0
 23 24  2  0
 24 25  1  0
 25 26  2  0
 26 27  1  0
 27 28  2  0
 28 29  1  0
 29 30  1  0
 30 31  1  6
 31 32  2  0
 31 33  1  0
 15 10  1  0
 30 21  1  0
 28 23  1  0
M  END
$$$$
544432
     RDKit          2D

 32 33  0  0  0  0  0  0  0  0999 V2000
    7.4952    0.0000    0.0000 Cl  0  0  0  0  0  0  0  0  0  0  0  0
    6.4952   -6.8350    0.0000 C   0  0  0  0  0  0  0  0  0  0  0  0
    5.1962   -6.0850    0.0000 C   0  0  0  0  0  0  0  0  0  0  0  0
    3.8971   -6.8350    0.0000 O   0  0  0  0  0  0  0  0  0  0  0  0
    2.5981   -6.0850    0.0000 C   0  0  0  0  0  0  0  0  0  0  0  0
    2.5981   -4.5850    0.0000 O   0  0  0  0  0  0  0  0  0  0  0  0
    1.2990   -6.8350    0.0000 C   0  0  0  0  0  0  0  0  0  0  0  0
    1.2990   -8.3350    0.0000 C   0  0  0  0  0  0  0  0  0  0  0  0
    2.5981   -9.0850    0.0000 C   0  0  0  0  0  0  0  0  0  0  0  0
    2.5981  -10.5850    0.0000 C   0  0  0  0  0  0  0  0  0  0  0  0
    3.8971  -11.3350    0.0000 C   0  0  0  0  0  0  0  0  0  0  0  0
    3.8971  -12.8350    0.0000 C   0  0  0  0  0  0  0  0  0  0  0  0
    2.5981  -13.5850    0.0000 C   0  0  0  0  0  0  0  0  0  0  0  0
    1.2990  -12.8350    0.0000 C   0  0  0  0  0  0  0  0  0  0  0  0
    1.2990  -11.3350    0.0000 C   0  0  0  0  0  0  0  0  0  0  0  0
   -0.0000   -6.0850    0.0000 N   0  0  0  0  0  0  0  0  0  0  0  0
   -0.0000   -4.5850    0.0000 C   0  0  0  0  0  0  0  0  0  0  0  0
    1.3515   -3.9342    0.0000 C   0  0  0  0  0  0  0  0  0  0  0  0
    1.6852   -2.4718    0.0000 C   0  0  0  0  0  0  0  0  0  0  0  0
    0.7500   -1.2990    0.0000 C   0  0  0  0  0  0  0  0  0  0  0  0
    1.5000    0.0000    0.0000 C   0  0  0  0  0  0  0  0  0  0  0  0
    0.7500    1.2990    0.0000 C   0  0  0  0  0  0  0  0  0  0  0  0
   -0.7500    1.2990    0.0000 C   0  0  0  0  0  0  0  0  0  0  0  0
   -1.5000    0.0000    0.0000 C   0  0  0  0  0  0  0  0  0  0  0  0
   -0.7500   -1.2990    0.0000 C   0  0  0  0  0  0  0  0  0  0  0  0
   -1.6852   -2.4718    0.0000 N   0  0  0  0  0  0  0  0  0  0  0  0
   -3.1476   -2.1380    0.0000 C   0  0  0  0  0  0  0  0  0  0  0  0
   -3.5898   -0.7046    0.0000 C   0  0  0  0  0  0  0  0  0  0  0  0
   -2.5695    0.3949    0.0000 O   0  0  0  0  0  0  0  0  0  0  0  0
   -5.0522   -0.3709    0.0000 O   0  0  0  0  0  0  0  0  0  0  0  0
   -1.3515   -3.9342    0.0000 C   0  0  0  0  0  0  0  0  0  0  0  0
   -2.5242   -4.8694    0.0000 O   0  0  0  0  0  0  0  0  0  0  0  0
  2  3  1  0
  3  4  1  0
  4  5  1  0
  5  6  2  0
  5  7  1  0
  7  8  1  6
  8  9  1  0
  9 10  1  0
 10 11  2  0
 11 12  1  0
 12 13  2  0
 13 14  1  0
 14 15  2  0
  7 16  1  0
 17 16  1  6
 17 18  1  0
 18 19  1  0
 19 20  1  0
 20 21  2  0
 21 22  1  0
 22 23  2  0
 23 24  1  0
 24 25  2  0
 25 26  1  0
 26 27  1  0
 27 28  1  0
 28 29  2  0
 28 30  1  0
 26 31  1  0
 31 32  2  0
 15 10  1  0
 31 17  1  0
 25 20  1  0
M  END
$$$$
674865
     RDKit          2D

 29 29  0  0  0  0  0  0  0  0999 V2000
    8.5000    0.0000    0.0000 Cl  0  0  0  0  0  0  0  0  0  0  0  0
    5.2500   -1.2990    0.0000 C   0  0  0  0  0  0  0  0  0  0  0  0
    3.7500   -1.2990    0.0000 C   0  0  0  0  0  0  0  0  0  0  0  0
    3.0000    0.0000    0.0000 O   0  0  0  0  0  0  0  0  0  0  0  0
    1.5000    0.0000    0.0000 C   0  0  0  0  0  0  0  0  0  0  0  0
    0.7500   -1.2990    0.0000 C   0  0  0  0  0  0  0  0  0  0  0  0
   -0.7500   -1.2990    0.0000 C   0  0  0  0  0  0  0  0  0  0  0  0
   -1.5000    0.0000    0.0000 C   0  0  0  0  0  0  0  0  0  0  0  0
   -0.7500    1.2990    0.0000 C   0  0  0  0  0  0  0  0  0  0  0  0
    0.7500    1.2990    0.0000 C   0  0  0  0  0  0  0  0  0  0  0  0
    1.5000    2.5981    0.0000 O   0  0  0  0  0  0  0  0  0  0  0  0
    0.7500    3.8971    0.0000 C   0  0  0  0  0  0  0  0  0  0  0  0
    1.5000    5.1962    0.0000 C   0  0  0  0  0  0  0  0  0  0  0  0
    0.7500    6.4952    0.0000 N   0  0  0  0  0  0  0  0  0  0  0  0
    1.5000    7.7942    0.0000 C   0  0  0  0  0  0  0  0  0  0  0  0
    0.7500    9.0933    0.0000 C   0  0  0  0  0  0  0  0  0  0  0  0
    3.0000    7.7942    0.0000 C   0  0  0  0  0  0  0  0  0  0  0  0
    3.7500    9.0933    0.0000 C   0  0  0  0  0  0  0  0  0  0  0  0
    5.2500    9.0933    0.0000 C   0  0  0  0  0  0  0  0  0  0  0  0
    6.0000   10.3923    0.0000 C   0  0  0  0  0  0  0  0  0  0  0  0
    5.2500   11.6913    0.0000 C   0  0  0  0  0  0  0  0  0  0  0  0
    6.0000   12.9904    0.0000 O   0  0  0  0  0  0  0  0  0  0  0  0
    7.5000   12.9904    0.0000 C   0  0  0  0  0  0  0  0  0  0  0  0
    3.7500   11.6913    0.0000 C   0  0  0  0  0  0  0  0  0  0  0  0
    3.0000   10.3923    0.0000 C   0  0  0  0  0  0  0  0  0  0  0  0
    3.0000   12.9904    0.0000 S   0  0  0  0  0  0  0  0  0  0  0  0
    1.7010   12.2404    0.0000 O   0  0  0  0  0  0  0  0  0  0  0  0
    4.2990   13.7404    0.0000 O   0  0  0  0  0  0  0  0  0  0  0  0
    2.2500   14.2894    0.0000 N   0  0  0  0  0  0  0  0  0  0  0  0
  2  3  1  0
  3  4  1  0
  4  5  1  0
  5  6  2  0
  6  7  1  0
  7  8  2  0
  8  9  1  0
  9 10  2  0
 10 11  1  0
 11 12  1  0
 12 13  1  0
 13 14  1  0
 14 15  1  0
 15 16  1  6
 15 17  1  0
 17 18  1  0
 18 19  2  0
 19 20  1  0
 20 21  2  0
 21 22  1  0
 22 23  1  0
 21 24  1  0
 24 25  2  0
 24 26  1  0
 26 27  2  0
 26 28  2  0
 26 29  1  0
 10  5  1  0
 25 18  1  0
M  END
$$$$
1051131
     RDKit          2D

 15 13  0  0  0  0  0  0  0  0999 V2000
    7.4952    0.0000    0.0000 Cl  0  0  0  0  0  0  0  0  0  0  0  0
    0.0000    0.0000    0.0000 C   0  0  0  0  0  0  0  0  0  0  0  0
    1.2990    0.7500    0.0000 C   0  0  0  0  0  0  0  0  0  0  0  0
    2.5981   -0.0000    0.0000 C   0  0  0  0  0  0  0  0  0  0  0  0
    3.8971    0.7500    0.0000 C   0  0  0  0  0  0  0  0  0  0  0  0
    5.1962   -0.0000    0.0000 O   0  0  0  0  0  0  0  0  0  0  0  0
    2.5981   -1.5000    0.0000 N   0  0  0  0  0  0  0  0  0  0  0  0
    3.8971   -2.2500    0.0000 C   0  0  0  0  0  0  0  0  0  0  0  0
    3.8971   -3.7500    0.0000 C   0  0  0  0  0  0  0  0  0  0  0  0
    5.1962   -4.5000    0.0000 N   0  0  0  0  0  0  0  0  0  0  0  0
    5.1962   -6.0000    0.0000 C   0  0  0  0  0  0  0  0  0  0  0  0
    6.4952   -6.7500    0.0000 C   0  0  0  0  0  0  0  0  0  0  0  0
    6.4952   -8.2500    0.0000 C   0  0  0  0  0  0  0  0  0  0  0  0
    3.8971   -6.7500    0.0000 C   0  0  0  0  0  0  0  0  0  0  0  0
    3.8971   -8.2500    0.0000 O   0  0  0  0  0  0  0  0  0  0  0  0
  2  3  1  0
  4  3  1  1
  4  5  1  0
  5  6  1  0
  4  7  1  0
  7  8  1  0
  8  9  1  0
  9 10  1  0
 10 11  1  0
 11 12  1  1
 12 13  1  0
 11 14  1  0
 14 15  1  0
M  END
$$$$
456266
     RDKit          2D

 32 35  0  0  0  0  0  0  0  0999 V2000
    5.2677    0.0000    0.0000 Cl  0  0  0  0  0  0  0  0  0  0  0  0
    4.0586    0.4512    0.0000 C   0  0  0  0  0  0  0  0  0  0  0  0
    2.6491    0.9642    0.0000 C   0  0  0  0  0  0  0  0  0  0  0  0
    1.5000    0.0000    0.0000 C   0  0  0  0  0  0  0  0  0  0  0  0
    2.6491   -0.9642    0.0000 O   0  0  0  0  0  0  0  0  0  0  0  0
    0.7500   -1.2990    0.0000 C   0  0  0  0  0  0  0  0  0  0  0  0
    1.5000   -2.5981    0.0000 O   0  0  0  0  0  0  0  0  0  0  0  0
   -0.7500   -1.2990    0.0000 O   0  0  0  0  0  0  0  0  0  0  0  0
   -1.5000    0.0000    0.0000 C   0  0  0  0  0  0  0  0  0  0  0  0
   -0.7500    1.2990    0.0000 C   0  0  0  0  0  0  0  0  0  0  0  0
    0.7500    1.2990    0.0000 C   0  0  0  0  0  0  0  0  0  0  0  0
    1.5000    2.5981    0.0000 C   0  0  0  0  0  0  0  0  0  0  0  0
    0.7500    3.8971    0.0000 C   0  0  0  0  0  0  0  0  0  0  0  0
   -0.7500    3.8971    0.0000 N   0  0  0  0  0  0  0  0  0  0  0  0
   -1.2135    5.3237    0.0000 C   0  0  0  0  0  0  0  0  0  0  0  0
    0.0000    6.2054    0.0000 C   0  0  0  0  0  0  0  0  0  0  0  0
    0.1568    7.6972    0.0000 C   0  0  0  0  0  0  0  0  0  0  0  0
    1.5271    8.3073    0.0000 C   0  0  0  0  0  0  0  0  0  0  0  0
    1.6839    9.7990    0.0000 C   0  0  0  0  0  0  0  0  0  0  0  0
    0.4704   10.6807    0.0000 C   0  0  0  0  0  0  0  0  0  0  0  0
    0.6272   12.1725    0.0000 N   0  0  0  0  0  0  0  0  0  0  0  0
   -0.5864   13.0542    0.0000 C   0  0  0  0  0  0  0  0  0  0  0  0
    1.9975   12.7826    0.0000 C   0  0  0  0  0  0  0  0  0  0  0  0
    3.0542   10.4092    0.0000 C   0  0  0  0  0  0  0  0  0  0  0  0
    3.2110   11.9009    0.0000 O   0  0  0  0  0  0  0  0  0  0  0  0
    4.2677    9.5275    0.0000 C   0  0  0  0  0  0  0  0  0  0  0  0
    4.1110    8.0357    0.0000 C   0  0  0  0  0  0  0  0  0  0  0  0
    2.7406    7.4256    0.0000 C   0  0  0  0  0  0  0  0  0  0  0  0
    2.5838    5.9338    0.0000 N   0  0  0  0  0  0  0  0  0  0  0  0
    1.2135    5.3237    0.0000 C   0  0  0  0  0  0  0  0  0  0  0  0
   -1.5000    2.5981    0.0000 C   0  0  0  0  0  0  0  0  0  0  0  0
   -3.0000    2.5981    0.0000 O   0  0  0  0  0  0  0  0  0  0  0  0
  2  3  1  0
  3  4  1  0
  4  5  1  6
  4  6  1  0
  6  7  2  0
  6  8  1  0
  8  9  1  0
  9 10  1  0
 10 11  2  0
 11 12  1  0
 12 13  2  0
 13 14  1  0
 14 15  1  0
 15 16  1  0
 16 17  2  0
 17 18  1  0
 18 19  2  0
 19 20  1  0
 20 21  1  0
 21 22  1  0
 21 23  1  0
 19 24  1  0
 24 25  1  0
 24 26  2  0
 26 27  1  0
 27 28  2  0
 28 29  1  0
 29 30  2  0
 14 31  1  0
 31 32  2  0
 11  4  1  0
 31 10  1  0
 30 13  1  0
 30 16  1  0
 28 18  1  0
M  END
$$$$
674768
     RDKit          2D

 27 27  0  0  0  0  0  0  0  0999 V2000
    0.0000    2.2990    0.0000 Cl  0  0  0  0  0  0  0  0  0  0  0  0
   -1.0981   -5.5981    0.0000 C   0  0  0  0  0  0  0  0  0  0  0  0
    0.2010   -4.8481    0.0000 C   0  0  0  0  0  0  0  0  0  0  0  0
    0.2010   -3.3481    0.0000 C   0  0  0  0  0  0  0  0  0  0  0  0
   -1.0981   -2.5981    0.0000 O   0  0  0  0  0  0  0  0  0  0  0  0
   -2.3971   -3.3481    0.0000 C   0  0  0  0  0  0  0  0  0  0  0  0
   -2.3971   -4.8481    0.0000 O   0  0  0  0  0  0  0  0  0  0  0  0
   -3.6962   -2.5981    0.0000 C   0  0  0  0  0  0  0  0  0  0  0  0
    1.5000   -2.5981    0.0000 C   0  0  0  0  0  0  0  0  0  0  0  0
    2.2500   -3.8971    0.0000 C   0  0  0  0  0  0  0  0  0  0  0  0
    3.7500   -3.8971    0.0000 C   0  0  0  0  0  0  0  0  0  0  0  0
    4.7920   -2.8182    0.0000 C   0  0  0  0  0  0  0  0  0  0  0  0
    4.5000   -5.1962    0.0000 N   0  0  0  0  0  0  0  0  0  0  0  0
    6.0000   -5.1962    0.0000 C   0  0  0  0  0  0  0  0  0  0  0  0
    3.7500   -6.4952    0.0000 C   0  0  0  0  0  0  0  0  0  0  0  0
    0.7500   -1.2990    0.0000 C   0  0  0  0  0  0  0  0  0  0  0  0
    1.5000    0.0000    0.0000 C   0  0  0  0  0  0  0  0  0  0  0  0
    0.7500    1.2990    0.0000 C   0  0  0  0  0  0  0  0  0  0  0  0
   -0.7500    1.2990    0.0000 C   0  0  0  0  0  0  0  0  0  0  0  0
   -1.5000    0.0000    0.0000 C   0  0  0  0  0  0  0  0  0  0  0  0
   -0.7500   -1.2990    0.0000 C   0  0  0  0  0  0  0  0  0  0  0  0
    2.7990   -1.8481    0.0000 C   0  0  0  0  0  0  0  0  0  0  0  0
    2.7990   -0.3481    0.0000 C   0  0  0  0  0  0  0  0  0  0  0  0
    4.0981    0.4019    0.0000 C   0  0  0  0  0  0  0  0  0  0  0  0
    5.3971   -0.3481    0.0000 C   0  0  0  0  0  0  0  0  0  0  0  0
    5.3971   -1.8481    0.0000 C   0  0  0  0  0  0  0  0  0  0  0  0
    4.0981   -2.5981    0.0000 C   0  0  0  0  0  0  0  0  0  0  0  0
  2  3  1  0
  4  3  1  6
  4  5  1  0
  5  6  1  0
  6  7  2  0
  6  8  1  0
  4  9  1  0
  9 10  1  0
 10 11  1  0
 11 12  1  6
 11 13  1  0
 13 14  1  0
 13 15  1  0
  9 16  1  0
 16 17  2  0
 17 18  1  0
 18 19  2  0
 19 20  1  0
 20 21  2  0
  9 22  1  0
 22 23  2  0
 23 24  1  0
 24 25  2  0
 25 26  1  0
 26 27  2  0
 21 16  1  0
 27 22  1  0
M  END
$$$$
675728
     RDKit          2D

 17 16  0  0  0  0  0  0  0  0999 V2000
    0.0000    6.1962    0.0000 Cl  0  0  0  0  0  0  0  0  0  0  0  0
    5.2500   -1.2990    0.0000 C   0  0  0  0  0  0  0  0  0  0  0  0
    3.7500   -1.2990    0.0000 C   0  0  0  0  0  0  0  0  0  0  0  0
    3.0000    0.0000    0.0000 C   0  0  0  0  0  0  0  0  0  0  0  0
    3.7500    1.2990    0.0000 C   0  0  0  0  0  0  0  0  0  0  0  0
    5.2500    1.2990    0.0000 C   0  0  0  0  0  0  0  0  0  0  0  0
    3.0000    2.5981    0.0000 C   0  0  0  0  0  0  0  0  0  0  0  0
    3.7500    3.8971    0.0000 N   0  0  0  0  0  0  0  0  0  0  0  0
    3.0000    5.1962    0.0000 C   0  0  0  0  0  0  0  0  0  0  0  0
    5.2500    3.8971    0.0000 C   0  0  0  0  0  0  0  0  0  0  0  0
    1.5000    0.0000    0.0000 C   0  0  0  0  0  0  0  0  0  0  0  0
    0.7500   -1.2990    0.0000 C   0  0  0  0  0  0  0  0  0  0  0  0
   -0.7500   -1.2990    0.0000 C   0  0  0  0  0  0  0  0  0  0  0  0
   -1.5000    0.0000    0.0000 C   0  0  0  0  0  0  0  0  0  0  0  0
   -0.7500    1.2990    0.0000 C   0  0  0  0  0  0  0  0  0  0  0  0
   -1.5000    2.5981    0.0000 O   0  0  0  0  0  0  0  0  0  0  0  0
    0.7500    1.2990    0.0000 C   0  0  0  0  0  0  0  0  0  0  0  0
  2  3  1  0
  4  3  1  1
  4  5  1  0
  5  6  1  6
  5  7  1  0
  7  8  1  0
  8  9  1  0
  8 10  1  0
  4 11  1  0
 11 12  2  0
 12 13  1  0
 13 14  2  0
 14 15  1  0
 15 16  1  0
 15 17  2  0
 17 11  1  0
M  END
$$$$
674281
     RDKit          2D

 16 16  0  0  0  0  0  0  0  0999 V2000
    5.7388    0.0000    0.0000 Cl  0  0  0  0  0  0  0  0  0  0  0  0
    3.5260   -1.2990    0.0000 C   0  0  0  0  0  0  0  0  0  0  0  0
    2.7760    0.0000    0.0000 C   0  0  0  0  0  0  0  0  0  0  0  0
    1.2760    0.0000    0.0000 C   0  0  0  0  0  0  0  0  0  0  0  0
    0.3943    1.2135    0.0000 C   0  0  0  0  0  0  0  0  0  0  0  0
    0.8578    2.6401    0.0000 C   0  0  0  0  0  0  0  0  0  0  0  0
    2.3250    2.9520    0.0000 C   0  0  0  0  0  0  0  0  0  0  0  0
    3.4398    1.9483    0.0000 C   0  0  0  0  0  0  0  0  0  0  0  0
    4.7388    2.6983    0.0000 N   0  0  0  0  0  0  0  0  0  0  0  0
    4.4269    4.1655    0.0000 C   0  0  0  0  0  0  0  0  0  0  0  0
    2.9352    4.3223    0.0000 N   0  0  0  0  0  0  0  0  0  0  0  0
    2.1852    5.6213    0.0000 C   0  0  0  0  0  0  0  0  0  0  0  0
   -1.0323    0.7500    0.0000 C   0  0  0  0  0  0  0  0  0  0  0  0
   -1.0323   -0.7500    0.0000 O   0  0  0  0  0  0  0  0  0  0  0  0
    0.3943   -1.2135    0.0000 C   0  0  0  0  0  0  0  0  0  0  0  0
    0.8578   -2.6401    0.0000 O   0  0  0  0  0  0  0  0  0  0  0  0
  2  3  1  0
  4  3  1  6
  4  5  1  0
  5  6  1  6
  6  7  1  0
  7  8  2  0
  8  9  1  0
  9 10  2  0
 10 11  1  0
 11 12  1  0
  5 13  1  0
 13 14  1  0
 14 15  1  0
 15 16  2  0
 15  4  1  0
 11  7  1  0
M  END
$$$$
1369635
     RDKit          2D

 20 19  0  0  0  0  0  0  0  0999 V2000
    0.0000    2.2990    0.0000 Cl  0  0  0  0  0  0  0  0  0  0  0  0
    0.0000    3.2990    0.0000 Cl  0  0  0  0  0  0  0  0  0  0  0  0
    6.6172   -3.5004    0.0000 C   0  0  0  0  0  0  0  0  0  0  0  0
    5.4681   -2.5362    0.0000 C   0  0  0  0  0  0  0  0  0  0  0  0
    4.0586   -3.0492    0.0000 N   0  0  0  0  0  0  0  0  0  0  0  0
    3.7981   -4.5264    0.0000 C   0  0  0  0  0  0  0  0  0  0  0  0
    4.9472   -5.4906    0.0000 C   0  0  0  0  0  0  0  0  0  0  0  0
    2.9095   -2.0850    0.0000 C   0  0  0  0  0  0  0  0  0  0  0  0
    3.1700   -0.6078    0.0000 O   0  0  0  0  0  0  0  0  0  0  0  0
    1.5000   -2.5981    0.0000 C   0  0  0  0  0  0  0  0  0  0  0  0
    1.7605   -4.0753    0.0000 C   0  0  0  0  0  0  0  0  0  0  0  0
    0.3509   -3.5623    0.0000 C   0  0  0  0  0  0  0  0  0  0  0  0
   -1.1263   -3.8227    0.0000 C   0  0  0  0  0  0  0  0  0  0  0  0
   -1.6393   -5.2323    0.0000 N   0  0  0  0  0  0  0  0  0  0  0  0
    0.7500   -1.2990    0.0000 C   0  0  0  0  0  0  0  0  0  0  0  0
    1.5000    0.0000    0.0000 C   0  0  0  0  0  0  0  0  0  0  0  0
    0.7500    1.2990    0.0000 C   0  0  0  0  0  0  0  0  0  0  0  0
   -0.7500    1.2990    0.0000 C   0  0  0  0  0  0  0  0  0  0  0  0
   -1.5000    0.0000    0.0000 C   0  0  0  0  0  0  0  0  0  0  0  0
   -0.7500   -1.2990    0.0000 C   0  0  0  0  0  0  0  0  0  0  0  0
  3  4  1  0
  4  5  1  0
  5  6  1  0
  6  7  1  0
  5  8  1  0
  8  9  2  0
  8 10  1  0
 10 11  1  0
 11 12  1  0
 12 13  1  0
 13 14  1  0
 10 15  1  0
 15 16  2  0
 16 17  1  0
 17 18  2  0
 18 19  1  0
 19 20  2  0
 12 10  1  0
 20 15  1  0
M  END
$$$$
1503092
     RDKit          2D

 56 59  0  0  0  0  0  0  0  0999 V2000
    9.3072    0.0000    0.0000 Cl  0  0  0  0  0  0  0  0  0  0  0  0
   10.3072    0.0000    0.0000 Cl  0  0  0  0  0  0  0  0  0  0  0  0
    8.3072  -12.3176    0.0000 C   0  0  0  0  0  0  0  0  0  0  0  0
    7.8436  -10.8910    0.0000 O   0  0  0  0  0  0  0  0  0  0  0  0
    6.3764  -10.5792    0.0000 C   0  0  0  0  0  0  0  0  0  0  0  0
    5.3727  -11.6939    0.0000 O   0  0  0  0  0  0  0  0  0  0  0  0
    5.9129   -9.1526    0.0000 N   0  0  0  0  0  0  0  0  0  0  0  0
    4.4457   -8.8407    0.0000 C   0  0  0  0  0  0  0  0  0  0  0  0
    3.4420   -9.9554    0.0000 C   0  0  0  0  0  0  0  0  0  0  0  0
    3.9055  -11.3820    0.0000 C   0  0  0  0  0  0  0  0  0  0  0  0
    1.9747   -9.6436    0.0000 C   0  0  0  0  0  0  0  0  0  0  0  0
    3.9821   -7.4141    0.0000 C   0  0  0  0  0  0  0  0  0  0  0  0
    2.5149   -7.1023    0.0000 O   0  0  0  0  0  0  0  0  0  0  0  0
    4.9858   -6.2994    0.0000 N   0  0  0  0  0  0  0  0  0  0  0  0
    6.4776   -6.4562    0.0000 C   0  0  0  0  0  0  0  0  0  0  0  0
    7.0877   -5.0859    0.0000 C   0  0  0  0  0  0  0  0  0  0  0  0
    5.9730   -4.0822    0.0000 C   0  0  0  0  0  0  0  0  0  0  0  0
    4.6740   -4.8322    0.0000 C   0  0  0  0  0  0  0  0  0  0  0  0
    3.3037   -4.2221    0.0000 C   0  0  0  0  0  0  0  0  0  0  0  0
    2.0046   -4.9721    0.0000 N   0  0  0  0  0  0  0  0  0  0  0  0
    0.8899   -3.9684    0.0000 C   0  0  0  0  0  0  0  0  0  0  0  0
    1.5000   -2.5981    0.0000 C   0  0  0  0  0  0  0  0  0  0  0  0
    2.9918   -2.7549    0.0000 N   0  0  0  0  0  0  0  0  0  0  0  0
    0.7500   -1.2990    0.0000 C   0  0  0  0  0  0  0  0  0  0  0  0
    1.5000    0.0000    0.0000 C   0  0  0  0  0  0  0  0  0  0  0  0
    0.7500    1.2990    0.0000 C   0  0  0  0  0  0  0  0  0  0  0  0
   -0.7500    1.2990    0.0000 C   0  0  0  0  0  0  0  0  0  0  0  0
   -1.5000    0.0000    0.0000 C   0  0  0  0  0  0  0  0  0  0  0  0
   -0.7500   -1.2990    0.0000 C   0  0  0  0  0  0  0  0  0  0  0  0
   -1.5000    2.5981    0.0000 C   0  0  0  0  0  0  0  0  0  0  0  0
   -0.7500    3.8971    0.0000 C   0  0  0  0  0  0  0  0  0  0  0  0
   -1.5000    5.1962    0.0000 C   0  0  0  0  0  0  0  0  0  0  0  0
   -3.0000    5.1962    0.0000 C   0  0  0  0  0  0  0  0  0  0  0  0
   -3.7500    3.8971    0.0000 C   0  0  0  0  0  0  0  0  0  0  0  0
   -3.0000    2.5981    0.0000 C   0  0  0  0  0  0  0  0  0  0  0  0
   -3.7500    6.4952    0.0000 C   0  0  0  0  0  0  0  0  0  0  0  0
   -5.2418    6.6520    0.0000 C   0  0  0  0  0  0  0  0  0  0  0  0
   -5.5537    8.1192    0.0000 N   0  0  0  0  0  0  0  0  0  0  0  0
   -4.2546    8.8692    0.0000 C   0  0  0  0  0  0  0  0  0  0  0  0
   -3.1399    7.8655    0.0000 N   0  0  0  0  0  0  0  0  0  0  0  0
   -4.0978   10.3610    0.0000 C   0  0  0  0  0  0  0  0  0  0  0  0
   -5.2125   11.3647    0.0000 C   0  0  0  0  0  0  0  0  0  0  0  0
   -4.6024   12.7350    0.0000 C   0  0  0  0  0  0  0  0  0  0  0  0
   -3.1106   12.5782    0.0000 C   0  0  0  0  0  0  0  0  0  0  0  0
   -2.7988   11.1110    0.0000 N   0  0  0  0  0  0  0  0  0  0  0  0
   -1.4285   10.5009    0.0000 C   0  0  0  0  0  0  0  0  0  0  0  0
   -1.2717    9.0091    0.0000 O   0  0  0  0  0  0  0  0  0  0  0  0
   -0.2149   11.3826    0.0000 C   0  0  0  0  0  0  0  0  0  0  0  0
   -0.3717   12.8743    0.0000 N   0  0  0  0  0  0  0  0  0  0  0  0
    0.8418   13.7560    0.0000 C   0  0  0  0  0  0  0  0  0  0  0  0
    2.2121   13.1459    0.0000 O   0  0  0  0  0  0  0  0  0  0  0  0
    0.6850   15.2478    0.0000 O   0  0  0  0  0  0  0  0  0  0  0  0
    1.8985   16.1295    0.0000 C   0  0  0  0  0  0  0  0  0  0  0  0
    1.1554   10.7725    0.0000 C   0  0  0  0  0  0  0  0  0  0  0  0
    2.3689   11.6541    0.0000 C   0  0  0  0  0  0  0  0  0  0  0  0
    1.3122    9.2807    0.0000 C   0  0  0  0  0  0  0  0  0  0  0  0
  3  4  1  0
  4  5  1  0
  5  6  2  0
  5  7  1  0
  8  7  1  1
  8  9  1  0
  9 10  1  0
  9 11  1  0
  8 12  1  0
 12 13  2  0
 12 14  1  0
 14 15  1  0
 15 16  1  0
 16 17  1  0
 17 18  1  0
 18 19  1  6
 19 20  2  0
 20 21  1  0
 21 22  2  0
 22 23  1  0
 22 24  1  0
 24 25  2  0
 25 26  1  0
 26 27  2  0
 27 28  1  0
 28 29  2  0
 27 30  1  0
 30 31  2  0
 31 32  1  0
 32 33  2  0
 33 34  1  0
 34 35  2  0
 33 36  1  0
 36 37  2  0
 37 38  1  0
 38 39  2  0
 39 40  1  0
 41 39  1  6
 41 42  1  0
 42 43  1  0
 43 44  1  0
 44 45  1  0
 45 46  1  0
 46 47  2  0
 46 48  1  0
 48 49  1  1
 49 50  1  0
 50 51  2  0
 50 52  1  0
 52 53  1  0
 48 54  1  0
 54 55  1  0
 54 56  1  0
 18 14  1  0
 23 19  1  0
 29 24  1  0
 35 30  1  0
 40 36  1  0
 45 41  1  0
M  END
$$$$
958409
     RDKit          2D

 38 39  0  0  0  0  0  0  0  0999 V2000
    3.5900    0.0000    0.0000 Cl  0  0  0  0  0  0  0  0  0  0  0  0
    4.5900    0.0000    0.0000 Cl  0  0  0  0  0  0  0  0  0  0  0  0
   -5.4996   -8.3906    0.0000 C   0  0  0  0  0  0  0  0  0  0  0  0
   -4.0900   -7.8776    0.0000 O   0  0  0  0  0  0  0  0  0  0  0  0
   -3.8296   -6.4004    0.0000 C   0  0  0  0  0  0  0  0  0  0  0  0
   -2.4200   -5.8874    0.0000 C   0  0  0  0  0  0  0  0  0  0  0  0
   -1.2709   -6.8515    0.0000 O   0  0  0  0  0  0  0  0  0  0  0  0
   -2.1595   -4.4101    0.0000 O   0  0  0  0  0  0  0  0  0  0  0  0
   -0.7500   -3.8971    0.0000 C   0  0  0  0  0  0  0  0  0  0  0  0
   -0.4895   -5.3743    0.0000 C   0  0  0  0  0  0  0  0  0  0  0  0
    0.9200   -5.8874    0.0000 C   0  0  0  0  0  0  0  0  0  0  0  0
    1.1805   -7.3646    0.0000 N   0  0  0  0  0  0  0  0  0  0  0  0
    2.5900   -7.8776    0.0000 C   0  0  0  0  0  0  0  0  0  0  0  0
    0.0314   -8.3287    0.0000 C   0  0  0  0  0  0  0  0  0  0  0  0
    0.2919   -9.8060    0.0000 C   0  0  0  0  0  0  0  0  0  0  0  0
   -0.8572  -10.7701    0.0000 C   0  0  0  0  0  0  0  0  0  0  0  0
   -0.5967  -12.2474    0.0000 C   0  0  0  0  0  0  0  0  0  0  0  0
    0.7515  -12.9049    0.0000 N   0  0  0  0  0  0  0  0  0  0  0  0
    0.5427  -14.3903    0.0000 C   0  0  0  0  0  0  0  0  0  0  0  0
    1.5069  -15.5394    0.0000 C   0  0  0  0  0  0  0  0  0  0  0  0
    0.9939  -16.9489    0.0000 C   0  0  0  0  0  0  0  0  0  0  0  0
   -0.4833  -17.2094    0.0000 C   0  0  0  0  0  0  0  0  0  0  0  0
   -1.4475  -16.0603    0.0000 C   0  0  0  0  0  0  0  0  0  0  0  0
   -0.9345  -14.6508    0.0000 C   0  0  0  0  0  0  0  0  0  0  0  0
   -1.6387  -13.3264    0.0000 N   0  0  0  0  0  0  0  0  0  0  0  0
    0.7500   -3.8971    0.0000 C   0  0  0  0  0  0  0  0  0  0  0  0
    1.5000   -2.5981    0.0000 C   0  0  0  0  0  0  0  0  0  0  0  0
    0.7500   -1.2990    0.0000 C   0  0  0  0  0  0  0  0  0  0  0  0
    1.5000    0.0000    0.0000 C   0  0  0  0  0  0  0  0  0  0  0  0
    0.7500    1.2990    0.0000 C   0  0  0  0  0  0  0  0  0  0  0  0
    1.5000    2.5981    0.0000 F   0  0  0  0  0  0  0  0  0  0  0  0
   -0.7500    1.2990    0.0000 C   0  0  0  0  0  0  0  0  0  0  0  0
   -1.5000    0.0000    0.0000 C   0  0  0  0  0  0  0  0  0  0  0  0
   -0.7500   -1.2990    0.0000 C   0  0  0  0  0  0  0  0  0  0  0  0
   -1.5000   -2.5981    0.0000 C   0  0  0  0  0  0  0  0  0  0  0  0
   -3.0000   -2.5981    0.0000 C   0  0  0  0  0  0  0  0  0  0  0  0
   -3.7500   -3.8971    0.0000 C   0  0  0  0  0  0  0  0  0  0  0  0
   -3.7500   -1.2990    0.0000 C   0  0  0  0  0  0  0  0  0  0  0  0
  3  4  1  0
  4  5  1  0
  5  6  1  0
  6  7  2  0
  6  8  1  0
  8  9  1  0
  9 10  1  6
 10 11  1  0
 11 12  1  0
 12 13  1  0
 12 14  1  0
 14 15  1  0
 15 16  1  0
 16 17  1  0
 17 18  2  0
 18 19  1  0
 19 20  2  0
 20 21  1  0
 21 22  2  0
 22 23  1  0
 23 24  2  0
 24 25  1  0
  9 26  1  0
 26 27  1  0
 27 28  1  0
 28 29  2  0
 29 30  1  0
 30 31  1  0
 30 32  2  0
 32 33  1  0
 33 34  2  0
 34 35  1  0
 35 36  1  1
 36 37  1  0
 36 38  1  0
 35  9  1  0
 25 17  1  0
 24 19  1  0
 34 28  1  0
M  END
$$$$
675726
     RDKit          2D

 19 18  0  0  0  0  0  0  0  0999 V2000
    0.0000    4.8971    0.0000 Cl  0  0  0  0  0  0  0  0  0  0  0  0
    0.0000    5.8971    0.0000 Cl  0  0  0  0  0  0  0  0  0  0  0  0
    5.2500   -1.2990    0.0000 C   0  0  0  0  0  0  0  0  0  0  0  0
    3.7500   -1.2990    0.0000 C   0  0  0  0  0  0  0  0  0  0  0  0
    3.0000   -2.5981    0.0000 O   0  0  0  0  0  0  0  0  0  0  0  0
    3.0000    0.0000    0.0000 C   0  0  0  0  0  0  0  0  0  0  0  0
    3.7500    1.2990    0.0000 O   0  0  0  0  0  0  0  0  0  0  0  0
    1.5000    0.0000    0.0000 C   0  0  0  0  0  0  0  0  0  0  0  0
    0.7500   -1.2990    0.0000 C   0  0  0  0  0  0  0  0  0  0  0  0
   -0.7500   -1.2990    0.0000 N   0  0  0  0  0  0  0  0  0  0  0  0
   -1.5000    0.0000    0.0000 C   0  0  0  0  0  0  0  0  0  0  0  0
   -0.7500    1.2990    0.0000 C   0  0  0  0  0  0  0  0  0  0  0  0
    0.7500    1.2990    0.0000 N   0  0  0  0  0  0  0  0  0  0  0  0
   -1.5000    2.5981    0.0000 C   0  0  0  0  0  0  0  0  0  0  0  0
   -0.7500    3.8971    0.0000 O   0  0  0  0  0  0  0  0  0  0  0  0
   -3.0000    2.5981    0.0000 N   0  0  0  0  0  0  0  0  0  0  0  0
   -3.7500    1.2990    0.0000 C   0  0  0  0  0  0  0  0  0  0  0  0
   -5.2500    1.2990    0.0000 N   0  0  0  0  0  0  0  0  0  0  0  0
   -3.0000    0.0000    0.0000 N   0  0  0  0  0  0  0  0  0  0  0  0
  4  3  1  6
  4  5  1  0
  4  6  1  0
  6  7  1  1
  6  8  1  0
  8  9  1  1
  9 10  1  0
 10 11  1  0
 11 12  2  0
 12 13  1  0
 12 14  1  0
 14 15  2  0
 14 16  1  0
 16 17  2  0
 17 18  1  0
 17 19  1  0
 13  8  1  0
 19 11  1  0
M  END
$$$$
675141
     RDKit          2D

 29 29  0  0  0  0  0  0  0  0999 V2000
    0.0000    4.8971    0.0000 Cl  0  0  0  0  0  0  0  0  0  0  0  0
    0.0000    5.8971    0.0000 Cl  0  0  0  0  0  0  0  0  0  0  0  0
    8.2500   -3.8971    0.0000 O   0  0  0  0  0  0  0  0  0  0  0  0
    7.5000   -2.5981    0.0000 C   0  0  0  0  0  0  0  0  0  0  0  0
    8.2500   -1.2990    0.0000 O   0  0  0  0  0  0  0  0  0  0  0  0
    6.0000   -2.5981    0.0000 C   0  0  0  0  0  0  0  0  0  0  0  0
    5.2500   -1.2990    0.0000 O   0  0  0  0  0  0  0  0  0  0  0  0
    3.7500   -1.2990    0.0000 C   0  0  0  0  0  0  0  0  0  0  0  0
    3.0000    0.0000    0.0000 C   0  0  0  0  0  0  0  0  0  0  0  0
    1.5000    0.0000    0.0000 N   0  0  0  0  0  0  0  0  0  0  0  0
    0.7500   -1.2990    0.0000 C   0  0  0  0  0  0  0  0  0  0  0  0
   -0.7500   -1.2990    0.0000 C   0  0  0  0  0  0  0  0  0  0  0  0
   -1.5000    0.0000    0.0000 N   0  0  0  0  0  0  0  0  0  0  0  0
   -0.7500    1.2990    0.0000 C   0  0  0  0  0  0  0  0  0  0  0  0
    0.7500    1.2990    0.0000 C   0  0  0  0  0  0  0  0  0  0  0  0
   -3.0000    0.0000    0.0000 C   0  0  0  0  0  0  0  0  0  0  0  0
   -3.7500    1.2990    0.0000 C   0  0  0  0  0  0  0  0  0  0  0  0
   -3.0000    2.5981    0.0000 C   0  0  0  0  0  0  0  0  0  0  0  0
   -3.7500    3.8971    0.0000 C   0  0  0  0  0  0  0  0  0  0  0  0
   -5.2500    3.8971    0.0000 C   0  0  0  0  0  0  0  0  0  0  0  0
   -6.0000    2.5981    0.0000 C   0  0  0  0  0  0  0  0  0  0  0  0
   -5.2500    1.2990    0.0000 C   0  0  0  0  0  0  0  0  0  0  0  0
   -3.7500   -1.2990    0.0000 C   0  0  0  0  0  0  0  0  0  0  0  0
   -5.2500   -1.2990    0.0000 C   0  0  0  0  0  0  0  0  0  0  0  0
   -6.0000   -2.5981    0.0000 C   0  0  0  0  0  0  0  0  0  0  0  0
   -5.2500   -3.8971    0.0000 C   0  0  0  0  0  0  0  0  0  0  0  0
   -6.0000   -5.1962    0.0000 Cl  0  0  0  0  0  0  0  0  0  0  0  0
   -3.7500   -3.8971    0.0000 C   0  0  0  0  0  0  0  0  0  0  0  0
   -3.0000   -2.5981    0.0000 C   0  0  0  0  0  0  0  0  0  0  0  0
  3  4  1  0
  4  5  2  0
  4  6  1  0
  6  7  1  0
  7  8  1  0
  8  9  1  0
  9 10  1  0
 10 11  1  0
 11 12  1  0
 12 13  1  0
 13 14  1  0
 14 15  1  0
 16 13  1  1
 16 17  1  0
 17 18  2  0
 18 19  1  0
 19 20  2  0
 20 21  1  0
 21 22  2  0
 16 23  1  0
 23 24  2  0
 24 25  1  0
 25 26  2  0
 26 27  1  0
 26 28  1  0
 28 29  2  0
 15 10  1  0
 22 17  1  0
 29 23  1  0
M  END
$$$$
102584
     RDKit          2D

 17 17  0  0  0  0  0  0  0  0999 V2000
    4.0000    0.0000    0.0000 Cl  0  0  0  0  0  0  0  0  0  0  0  0
    3.0000    0.0000    0.0000 Cl  0  0  0  0  0  0  0  0  0  0  0  0
    1.5000    0.0000    0.0000 C   0  0  0  0  0  0  0  0  0  0  0  0
    0.7500   -1.2990    0.0000 C   0  0  0  0  0  0  0  0  0  0  0  0
    1.5000   -2.5981    0.0000 C   0  0  0  0  0  0  0  0  0  0  0  0
    0.7500   -3.8971    0.0000 N   0  0  0  0  0  0  0  0  0  0  0  0
    1.3601   -5.2674    0.0000 C   0  0  0  0  0  0  0  0  0  0  0  0
    0.2454   -6.2711    0.0000 C   0  0  0  0  0  0  0  0  0  0  0  0
   -1.0537   -5.5211    0.0000 C   0  0  0  0  0  0  0  0  0  0  0  0
   -0.7418   -4.0539    0.0000 C   0  0  0  0  0  0  0  0  0  0  0  0
   -1.7455   -2.9392    0.0000 N   0  0  0  0  0  0  0  0  0  0  0  0
   -0.7500   -1.2990    0.0000 N   0  0  0  0  0  0  0  0  0  0  0  0
   -1.5000    0.0000    0.0000 C   0  0  0  0  0  0  0  0  0  0  0  0
   -3.0000    0.0000    0.0000 O   0  0  0  0  0  0  0  0  0  0  0  0
   -0.7500    1.2990    0.0000 N   0  0  0  0  0  0  0  0  0  0  0  0
    0.7500    1.2990    0.0000 C   0  0  0  0  0  0  0  0  0  0  0  0
    1.5000    2.5981    0.0000 O   0  0  0  0  0  0  0  0  0  0  0  0
  2  3  1  0
  3  4  2  0
  4  5  1  0
  5  6  1  0
  6  7  1  0
  7  8  1  0
  8  9  1  0
  9 10  1  0
 10 11  2  0
  4 12  1  0
 12 13  1  0
 13 14  2  0
 13 15  1  0
 15 16  1  0
 16 17  2  0
 16  3  1  0
 10  6  1  0
M  END
$$$$
550155
     RDKit          2D

 29 32  0  0  0  0  0  0  0  0999 V2000
    2.2760    0.0000    0.0000 Cl  0  0  0  0  0  0  0  0  0  0  0  0
   -0.0967    5.1517    0.0000 Cl  0  0  0  0  0  0  0  0  0  0  0  0
   -0.4086    3.6844    0.0000 C   0  0  0  0  0  0  0  0  0  0  0  0
    0.7062    2.6807    0.0000 C   0  0  0  0  0  0  0  0  0  0  0  0
    0.3943    1.2135    0.0000 C   0  0  0  0  0  0  0  0  0  0  0  0
    1.2760    0.0000    0.0000 N   0  0  0  0  0  0  0  0  0  0  0  0
    0.3943   -1.2135    0.0000 C   0  0  0  0  0  0  0  0  0  0  0  0
    0.8578   -2.6401    0.0000 O   0  0  0  0  0  0  0  0  0  0  0  0
   -1.0323   -0.7500    0.0000 C   0  0  0  0  0  0  0  0  0  0  0  0
   -1.0323    0.7500    0.0000 C   0  0  0  0  0  0  0  0  0  0  0  0
   -2.1470    1.7537    0.0000 C   0  0  0  0  0  0  0  0  0  0  0  0
   -1.8351    3.2209    0.0000 C   0  0  0  0  0  0  0  0  0  0  0  0
   -2.9499    4.2246    0.0000 C   0  0  0  0  0  0  0  0  0  0  0  0
   -2.6380    5.6918    0.0000 C   0  0  0  0  0  0  0  0  0  0  0  0
   -3.7527    6.6955    0.0000 N   0  0  0  0  0  0  0  0  0  0  0  0
   -3.4408    8.1628    0.0000 C   0  0  0  0  0  0  0  0  0  0  0  0
   -4.5556    9.1664    0.0000 C   0  0  0  0  0  0  0  0  0  0  0  0
   -5.9821    8.7029    0.0000 N   0  0  0  0  0  0  0  0  0  0  0  0
   -6.2940    7.2357    0.0000 C   0  0  0  0  0  0  0  0  0  0  0  0
   -5.1793    6.2320    0.0000 C   0  0  0  0  0  0  0  0  0  0  0  0
   -7.0969    9.7066    0.0000 C   0  0  0  0  0  0  0  0  0  0  0  0
   -8.5641    9.3948    0.0000 N   0  0  0  0  0  0  0  0  0  0  0  0
   -9.3141   10.6938    0.0000 S   0  0  0  0  0  0  0  0  0  0  0  0
   -8.3104   11.8085    0.0000 C   0  0  0  0  0  0  0  0  0  0  0  0
   -8.4672   13.3003    0.0000 C   0  0  0  0  0  0  0  0  0  0  0  0
   -7.2536   14.1820    0.0000 C   0  0  0  0  0  0  0  0  0  0  0  0
   -5.8833   13.5719    0.0000 C   0  0  0  0  0  0  0  0  0  0  0  0
   -5.7265   12.0801    0.0000 C   0  0  0  0  0  0  0  0  0  0  0  0
   -6.9401   11.1984    0.0000 C   0  0  0  0  0  0  0  0  0  0  0  0
  2  3  1  0
  3  4  2  0
  4  5  1  0
  5  6  1  0
  6  7  1  0
  7  8  2  0
  7  9  1  0
  9 10  1  0
 10 11  1  0
 11 12  2  0
 12 13  1  0
 13 14  1  0
 14 15  1  0
 15 16  1  0
 16 17  1  0
 17 18  1  0
 18 19  1  0
 19 20  1  0
 18 21  1  0
 21 22  2  0
 22 23  1  0
 23 24  1  0
 24 25  2  0
 25 26  1  0
 26 27  2  0
 27 28  1  0
 28 29  2  0
 12  3  1  0
 10  5  2  0
 20 15  1  0
 29 21  1  0
 29 24  1  0
M  END
$$$$
674710
     RDKit          2D

 17 18  0  0  0  0  0  0  0  0999 V2000
    2.2760    0.0000    0.0000 Cl  0  0  0  0  0  0  0  0  0  0  0  0
   -3.7527    6.6955    0.0000 Cl  0  0  0  0  0  0  0  0  0  0  0  0
   -2.6380    5.6918    0.0000 C   0  0  0  0  0  0  0  0  0  0  0  0
   -1.2114    6.1554    0.0000 C   0  0  0  0  0  0  0  0  0  0  0  0
   -0.0967    5.1517    0.0000 C   0  0  0  0  0  0  0  0  0  0  0  0
   -0.4086    3.6844    0.0000 C   0  0  0  0  0  0  0  0  0  0  0  0
    0.7062    2.6807    0.0000 N   0  0  0  0  0  0  0  0  0  0  0  0
    0.3943    1.2135    0.0000 C   0  0  0  0  0  0  0  0  0  0  0  0
    1.2760    0.0000    0.0000 N   0  0  0  0  0  0  0  0  0  0  0  0
    0.3943   -1.2135    0.0000 C   0  0  0  0  0  0  0  0  0  0  0  0
    0.8578   -2.6401    0.0000 O   0  0  0  0  0  0  0  0  0  0  0  0
   -1.0323   -0.7500    0.0000 C   0  0  0  0  0  0  0  0  0  0  0  0
   -1.0323    0.7500    0.0000 N   0  0  0  0  0  0  0  0  0  0  0  0
   -2.1470    1.7537    0.0000 C   0  0  0  0  0  0  0  0  0  0  0  0
   -1.8351    3.2209    0.0000 C   0  0  0  0  0  0  0  0  0  0  0  0
   -2.9499    4.2246    0.0000 C   0  0  0  0  0  0  0  0  0  0  0  0
   -4.3764    3.7611    0.0000 Cl  0  0  0  0  0  0  0  0  0  0  0  0
  2  3  1  0
  3  4  2  0
  4  5  1  0
  5  6  2  0
  6  7  1  0
  7  8  2  0
  8  9  1  0
  9 10  1  0
 10 11  2  0
 10 12  1  0
 12 13  1  0
 13 14  1  0
 14 15  1  0
 15 16  2  0
 16 17  1  0
 16  3  1  0
 15  6  1  0
 13  8  1  0
M  END
$$$$
674280
     RDKit          2D

 17 18  0  0  0  0  0  0  0  0999 V2000
    0.0000    5.3958    0.0000 Cl  0  0  0  0  0  0  0  0  0  0  0  0
   -2.9499    4.2246    0.0000 Cl  0  0  0  0  0  0  0  0  0  0  0  0
   -1.8351    3.2209    0.0000 C   0  0  0  0  0  0  0  0  0  0  0  0
   -0.4086    3.6844    0.0000 C   0  0  0  0  0  0  0  0  0  0  0  0
    0.7062    2.6807    0.0000 C   0  0  0  0  0  0  0  0  0  0  0  0
    0.3943    1.2135    0.0000 C   0  0  0  0  0  0  0  0  0  0  0  0
    1.2760    0.0000    0.0000 N   0  0  0  0  0  0  0  0  0  0  0  0
    0.3943   -1.2135    0.0000 S   0  0  0  0  0  0  0  0  0  0  0  0
   -1.0323   -0.7500    0.0000 N   0  0  0  0  0  0  0  0  0  0  0  0
   -1.0323    0.7500    0.0000 C   0  0  0  0  0  0  0  0  0  0  0  0
   -2.1470    1.7537    0.0000 C   0  0  0  0  0  0  0  0  0  0  0  0
   -3.5736    1.2902    0.0000 N   0  0  0  0  0  0  0  0  0  0  0  0
   -4.6883    2.2939    0.0000 C   0  0  0  0  0  0  0  0  0  0  0  0
   -6.1555    1.9820    0.0000 N   0  0  0  0  0  0  0  0  0  0  0  0
   -6.9055    3.2810    0.0000 C   0  0  0  0  0  0  0  0  0  0  0  0
   -5.9018    4.3958    0.0000 C   0  0  0  0  0  0  0  0  0  0  0  0
   -4.5315    3.7856    0.0000 N   0  0  0  0  0  0  0  0  0  0  0  0
  2  3  1  0
  3  4  1  0
  4  5  2  0
  5  6  1  0
  6  7  2  0
  7  8  1  0
  8  9  1  0
  9 10  2  0
 10 11  1  0
 11 12  1  0
 12 13  1  0
 13 14  2  0
 14 15  1  0
 15 16  1  0
 16 17  1  0
 11  3  2  0
 10  6  1  0
 17 13  1  0
M  END
$$$$
674749
     RDKit          2D

 27 29  0  0  0  0  0  0  0  0999 V2000
   11.3923    0.0000    0.0000 Cl  0  0  0  0  0  0  0  0  0  0  0  0
   10.3923   -9.6073    0.0000 Cl  0  0  0  0  0  0  0  0  0  0  0  0
    9.0933  -10.3573    0.0000 C   0  0  0  0  0  0  0  0  0  0  0  0
    9.0933  -11.8573    0.0000 C   0  0  0  0  0  0  0  0  0  0  0  0
    7.7942  -12.6073    0.0000 C   0  0  0  0  0  0  0  0  0  0  0  0
    6.4952  -11.8573    0.0000 C   0  0  0  0  0  0  0  0  0  0  0  0
    6.4952  -10.3573    0.0000 C   0  0  0  0  0  0  0  0  0  0  0  0
    7.7942   -9.6073    0.0000 C   0  0  0  0  0  0  0  0  0  0  0  0
    5.1962   -9.6073    0.0000 N   0  0  0  0  0  0  0  0  0  0  0  0
    5.1962   -8.1073    0.0000 C   0  0  0  0  0  0  0  0  0  0  0  0
    3.8971   -7.3573    0.0000 C   0  0  0  0  0  0  0  0  0  0  0  0
    2.5981   -8.1073    0.0000 N   0  0  0  0  0  0  0  0  0  0  0  0
    1.2990   -7.3573    0.0000 C   0  0  0  0  0  0  0  0  0  0  0  0
    1.2990   -5.8573    0.0000 C   0  0  0  0  0  0  0  0  0  0  0  0
   -0.0000   -5.1073    0.0000 C   0  0  0  0  0  0  0  0  0  0  0  0
   -0.0000   -3.6073    0.0000 N   0  0  0  0  0  0  0  0  0  0  0  0
    1.2135   -2.7256    0.0000 N   0  0  0  0  0  0  0  0  0  0  0  0
    0.7500   -1.2990    0.0000 C   0  0  0  0  0  0  0  0  0  0  0  0
    1.5000    0.0000    0.0000 C   0  0  0  0  0  0  0  0  0  0  0  0
    0.7500    1.2990    0.0000 C   0  0  0  0  0  0  0  0  0  0  0  0
   -0.7500    1.2990    0.0000 C   0  0  0  0  0  0  0  0  0  0  0  0
   -1.5000    0.0000    0.0000 C   0  0  0  0  0  0  0  0  0  0  0  0
   -0.7500   -1.2990    0.0000 N   0  0  0  0  0  0  0  0  0  0  0  0
   -1.2135   -2.7256    0.0000 C   0  0  0  0  0  0  0  0  0  0  0  0
   -2.6401   -3.1891    0.0000 O   0  0  0  0  0  0  0  0  0  0  0  0
    2.5981   -9.6073    0.0000 C   0  0  0  0  0  0  0  0  0  0  0  0
    3.8971  -10.3573    0.0000 C   0  0  0  0  0  0  0  0  0  0  0  0
  2  3  1  0
  3  4  2  0
  4  5  1  0
  5  6  2  0
  6  7  1  0
  7  8  2  0
  7  9  1  0
  9 10  1  0
 10 11  1  0
 11 12  1  0
 12 13  1  0
 13 14  1  0
 14 15  1  0
 15 16  1  0
 16 17  1  0
 17 18  2  0
 18 19  1  0
 19 20  2  0
 20 21  1  0
 21 22  2  0
 22 23  1  0
 23 24  1  0
 24 25  2  0
 12 26  1  0
 26 27  1  0
  8  3  1  0
 27  9  1  0
 24 16  1  0
 23 18  1  0
M  END
$$$$
548124
     RDKit          2D

 15 15  0  0  0  0  0  0  0  0999 V2000
    0.0000    4.8116    0.0000 Cl  0  0  0  0  0  0  0  0  0  0  0  0
    3.0000    0.0000    0.0000 Cl  0  0  0  0  0  0  0  0  0  0  0  0
    1.5000    0.0000    0.0000 C   0  0  0  0  0  0  0  0  0  0  0  0
    0.7500   -1.2990    0.0000 C   0  0  0  0  0  0  0  0  0  0  0  0
   -0.7500   -1.2990    0.0000 C   0  0  0  0  0  0  0  0  0  0  0  0
   -1.5000    0.0000    0.0000 C   0  0  0  0  0  0  0  0  0  0  0  0
   -0.7500    1.2990    0.0000 C   0  0  0  0  0  0  0  0  0  0  0  0
   -1.5000    2.5981    0.0000 Cl  0  0  0  0  0  0  0  0  0  0  0  0
    0.7500    1.2990    0.0000 C   0  0  0  0  0  0  0  0  0  0  0  0
    1.5000    2.5981    0.0000 N   0  0  0  0  0  0  0  0  0  0  0  0
    3.0000    2.5981    0.0000 C   0  0  0  0  0  0  0  0  0  0  0  0
    3.8817    3.8116    0.0000 N   0  0  0  0  0  0  0  0  0  0  0  0
    5.3083    3.3481    0.0000 C   0  0  0  0  0  0  0  0  0  0  0  0
    5.3083    1.8481    0.0000 C   0  0  0  0  0  0  0  0  0  0  0  0
    3.8817    1.3846    0.0000 N   0  0  0  0  0  0  0  0  0  0  0  0
  2  3  1  0
  3  4  2  0
  4  5  1  0
  5  6  2  0
  6  7  1  0
  7  8  1  0
  7  9  2  0
  9 10  1  0
 10 11  1  0
 11 12  2  0
 12 13  1  0
 13 14  1  0
 14 15  1  0
  9  3  1  0
 15 11  1  0
M  END
$$$$
551003
     RDKit          2D

 18 19  0  0  0  0  0  0  0  0999 V2000
    2.2760    0.0000    0.0000 Cl  0  0  0  0  0  0  0  0  0  0  0  0
   -5.1793    6.2320    0.0000 Cl  0  0  0  0  0  0  0  0  0  0  0  0
   -3.7527    6.6955    0.0000 C   0  0  0  0  0  0  0  0  0  0  0  0
   -3.4408    8.1628    0.0000 C   0  0  0  0  0  0  0  0  0  0  0  0
   -2.0143    8.6263    0.0000 C   0  0  0  0  0  0  0  0  0  0  0  0
   -0.8995    7.6226    0.0000 C   0  0  0  0  0  0  0  0  0  0  0  0
   -1.2114    6.1554    0.0000 C   0  0  0  0  0  0  0  0  0  0  0  0
   -2.6380    5.6918    0.0000 C   0  0  0  0  0  0  0  0  0  0  0  0
   -2.9499    4.2246    0.0000 C   0  0  0  0  0  0  0  0  0  0  0  0
   -1.8351    3.2209    0.0000 N   0  0  0  0  0  0  0  0  0  0  0  0
   -0.4086    3.6844    0.0000 C   0  0  0  0  0  0  0  0  0  0  0  0
    0.7062    2.6807    0.0000 C   0  0  0  0  0  0  0  0  0  0  0  0
    0.3943    1.2135    0.0000 C   0  0  0  0  0  0  0  0  0  0  0  0
    1.2760    0.0000    0.0000 S   0  0  0  0  0  0  0  0  0  0  0  0
    0.3943   -1.2135    0.0000 C   0  0  0  0  0  0  0  0  0  0  0  0
   -1.0323   -0.7500    0.0000 C   0  0  0  0  0  0  0  0  0  0  0  0
   -1.0323    0.7500    0.0000 C   0  0  0  0  0  0  0  0  0  0  0  0
   -2.1470    1.7537    0.0000 C   0  0  0  0  0  0  0  0  0  0  0  0
  2  3  1  0
  3  4  2  0
  4  5  1  0
  5  6  2  0
  6  7  1  0
  7  8  2  0
  8  9  1  0
  9 10  1  0
 10 11  1  0
 11 12  1  0
 12 13  1  0
 13 14  1  0
 14 15  1  0
 15 16  2  0
 16 17  1  0
 17 18  1  0
  8  3  1  0
 18 10  1  0
 17 13  2  0
M  END
$$$$
547681
     RDKit          2D

 10  8  0  0  0  0  0  0  0  0999 V2000
    3.5981    0.0000    0.0000 Cl  0  0  0  0  0  0  0  0  0  0  0  0
    0.0000    0.0000    0.0000 C   0  0  0  0  0  0  0  0  0  0  0  0
    1.2990    0.7500    0.0000 N   0  0  0  0  0  0  0  0  0  0  0  0
    2.5981   -0.0000    0.0000 C   0  0  0  0  0  0  0  0  0  0  0  0
    1.2990    2.2500    0.0000 C   0  0  0  0  0  0  0  0  0  0  0  0
    2.5981    3.0000    0.0000 N   0  0  0  0  0  0  0  0  0  0  0  0
   -0.0000    3.0000    0.0000 N   0  0  0  0  0  0  0  0  0  0  0  0
   -0.0000    4.5000    0.0000 C   0  0  0  0  0  0  0  0  0  0  0  0
   -1.2990    5.2500    0.0000 N   0  0  0  0  0  0  0  0  0  0  0  0
    1.2990    5.2500    0.0000 N   0  0  0  0  0  0  0  0  0  0  0  0
  2  3  1  0
  3  4  1  0
  3  5  1  0
  5  6  2  0
  5  7  1  0
  7  8  2  0
  8  9  1  0
  8 10  1  0
M  END
$$$$
548913
     RDKit          2D

 35 37  0  0  0  0  0  0  0  0999 V2000
    6.3971    0.0000    0.0000 Cl  0  0  0  0  0  0  0  0  0  0  0  0
    5.3971   -4.4462    0.0000 C   0  0  0  0  0  0  0  0  0  0  0  0
    4.0981   -5.1962    0.0000 N   0  0  0  0  0  0  0  0  0  0  0  0
    4.4610   -6.6516    0.0000 C   0  0  0  0  0  0  0  0  0  0  0  0
    2.7990   -4.4462    0.0000 C   0  0  0  0  0  0  0  0  0  0  0  0
    2.7990   -2.9462    0.0000 O   0  0  0  0  0  0  0  0  0  0  0  0
    1.5000   -5.1962    0.0000 C   0  0  0  0  0  0  0  0  0  0  0  0
    0.7500   -3.8971    0.0000 C   0  0  0  0  0  0  0  0  0  0  0  0
    1.5000   -2.5981    0.0000 C   0  0  0  0  0  0  0  0  0  0  0  0
    0.7500   -1.2990    0.0000 N   0  0  0  0  0  0  0  0  0  0  0  0
    1.5000    0.0000    0.0000 C   0  0  0  0  0  0  0  0  0  0  0  0
    0.7500    1.2990    0.0000 C   0  0  0  0  0  0  0  0  0  0  0  0
   -0.7500    1.2990    0.0000 C   0  0  0  0  0  0  0  0  0  0  0  0
   -0.4895    2.7762    0.0000 O   0  0  0  0  0  0  0  0  0  0  0  0
   -1.5000    0.0000    0.0000 C   0  0  0  0  0  0  0  0  0  0  0  0
   -0.7500   -1.2990    0.0000 C   0  0  0  0  0  0  0  0  0  0  0  0
   -2.1595    1.8121    0.0000 C   0  0  0  0  0  0  0  0  0  0  0  0
   -2.4200    3.2893    0.0000 C   0  0  0  0  0  0  0  0  0  0  0  0
   -3.8296    3.8023    0.0000 C   0  0  0  0  0  0  0  0  0  0  0  0
   -4.9786    2.8381    0.0000 C   0  0  0  0  0  0  0  0  0  0  0  0
   -6.3882    3.3512    0.0000 Cl  0  0  0  0  0  0  0  0  0  0  0  0
   -4.7181    1.3609    0.0000 C   0  0  0  0  0  0  0  0  0  0  0  0
   -3.3086    0.8479    0.0000 C   0  0  0  0  0  0  0  0  0  0  0  0
    2.2500   -6.4952    0.0000 C   0  0  0  0  0  0  0  0  0  0  0  0
    1.5000   -7.7942    0.0000 C   0  0  0  0  0  0  0  0  0  0  0  0
    2.2500   -9.0933    0.0000 C   0  0  0  0  0  0  0  0  0  0  0  0
    3.7500   -9.0933    0.0000 C   0  0  0  0  0  0  0  0  0  0  0  0
    4.5000   -7.7942    0.0000 C   0  0  0  0  0  0  0  0  0  0  0  0
    3.7500   -6.4952    0.0000 C   0  0  0  0  0  0  0  0  0  0  0  0
    0.2010   -5.9462    0.0000 C   0  0  0  0  0  0  0  0  0  0  0  0
   -1.0981   -5.1962    0.0000 C   0  0  0  0  0  0  0  0  0  0  0  0
   -2.3971   -5.9462    0.0000 C   0  0  0  0  0  0  0  0  0  0  0  0
   -2.3971   -7.4462    0.0000 C   0  0  0  0  0  0  0  0  0  0  0  0
   -1.0981   -8.1962    0.0000 C   0  0  0  0  0  0  0  0  0  0  0  0
    0.2010   -7.4462    0.0000 C   0  0  0  0  0  0  0  0  0  0  0  0
  2  3  1  0
  3  4  1  0
  3  5  1  0
  5  6  2  0
  5  7  1  0
  7  8  1  0
  8  9  1  0
  9 10  1  0
 10 11  1  0
 11 12  1  0
 12 13  1  0
 13 14  1  0
 13 15  1  0
 15 16  1  0
 13 17  1  0
 17 18  2  0
 18 19  1  0
 19 20  2  0
 20 21  1  0
 20 22  1  0
 22 23  2  0
  7 24  1  0
 24 25  2  0
 25 26  1  0
 26 27  2  0
 27 28  1  0
 28 29  2  0
  7 30  1  0
 30 31  2  0
 31 32  1  0
 32 33  2  0
 33 34  1  0
 34 35  2  0
 16 10  1  0
 23 17  1  0
 29 24  1  0
 35 30  1  0
M  END
$$$$
1339907
     RDKit          2D

 29 30  0  0  0  0  0  0  0  0999 V2000
    0.0000    3.5981    0.0000 Cl  0  0  0  0  0  0  0  0  0  0  0  0
    6.0000   -2.5981    0.0000 C   0  0  0  0  0  0  0  0  0  0  0  0
    5.2500   -1.2990    0.0000 N   0  0  0  0  0  0  0  0  0  0  0  0
    6.0000    0.0000    0.0000 C   0  0  0  0  0  0  0  0  0  0  0  0
    3.7500   -1.2990    0.0000 C   0  0  0  0  0  0  0  0  0  0  0  0
    3.0000   -2.5981    0.0000 O   0  0  0  0  0  0  0  0  0  0  0  0
    3.0000    0.0000    0.0000 N   0  0  0  0  0  0  0  0  0  0  0  0
    1.5000    0.0000    0.0000 C   0  0  0  0  0  0  0  0  0  0  0  0
    0.7500   -1.2990    0.0000 C   0  0  0  0  0  0  0  0  0  0  0  0
   -0.7500   -1.2990    0.0000 C   0  0  0  0  0  0  0  0  0  0  0  0
   -1.5000    0.0000    0.0000 C   0  0  0  0  0  0  0  0  0  0  0  0
   -3.0000    0.0000    0.0000 C   0  0  0  0  0  0  0  0  0  0  0  0
   -3.7500    1.2990    0.0000 C   0  0  0  0  0  0  0  0  0  0  0  0
   -5.2500    1.2990    0.0000 N   0  0  0  0  0  0  0  0  0  0  0  0
   -6.0000    2.5981    0.0000 C   0  0  0  0  0  0  0  0  0  0  0  0
   -7.5000    2.5981    0.0000 C   0  0  0  0  0  0  0  0  0  0  0  0
   -8.2500    1.2990    0.0000 N   0  0  0  0  0  0  0  0  0  0  0  0
   -7.5000    0.0000    0.0000 C   0  0  0  0  0  0  0  0  0  0  0  0
   -6.0000    0.0000    0.0000 C   0  0  0  0  0  0  0  0  0  0  0  0
   -9.7500    1.2990    0.0000 C   0  0  0  0  0  0  0  0  0  0  0  0
  -10.5000    2.5981    0.0000 C   0  0  0  0  0  0  0  0  0  0  0  0
  -12.0000    2.5981    0.0000 C   0  0  0  0  0  0  0  0  0  0  0  0
  -12.7500    1.2990    0.0000 C   0  0  0  0  0  0  0  0  0  0  0  0
  -12.0000    0.0000    0.0000 C   0  0  0  0  0  0  0  0  0  0  0  0
  -12.7500   -1.2990    0.0000 Cl  0  0  0  0  0  0  0  0  0  0  0  0
  -10.5000    0.0000    0.0000 C   0  0  0  0  0  0  0  0  0  0  0  0
   -9.7500   -1.2990    0.0000 Cl  0  0  0  0  0  0  0  0  0  0  0  0
   -0.7500    1.2990    0.0000 C   0  0  0  0  0  0  0  0  0  0  0  0
    0.7500    1.2990    0.0000 C   0  0  0  0  0  0  0  0  0  0  0  0
  2  3  1  0
  3  4  1  0
  3  5  1  0
  5  6  2  0
  5  7  1  0
  8  7  1  6
  8  9  1  0
  9 10  1  0
 10 11  1  0
 11 12  1  1
 12 13  1  0
 13 14  1  0
 14 15  1  0
 15 16  1  0
 16 17  1  0
 17 18  1  0
 18 19  1  0
 17 20  1  0
 20 21  2  0
 21 22  1  0
 22 23  2  0
 23 24  1  0
 24 25  1  0
 24 26  2  0
 26 27  1  0
 11 28  1  0
 28 29  1  0
 29  8  1  0
 19 14  1  0
 26 20  1  0
M  END
$$$$
674923
     RDKit          2D

 21 21  0  0  0  0  0  0  0  0999 V2000
    7.0000    0.0000    0.0000 Cl  0  0  0  0  0  0  0  0  0  0  0  0
    6.0000   -5.1962    0.0000 C   0  0  0  0  0  0  0  0  0  0  0  0
    4.5000   -5.1962    0.0000 N   0  0  0  0  0  0  0  0  0  0  0  0
    3.7500   -6.4952    0.0000 C   0  0  0  0  0  0  0  0  0  0  0  0
    3.7500   -3.8971    0.0000 C   0  0  0  0  0  0  0  0  0  0  0  0
    2.2500   -3.8971    0.0000 C   0  0  0  0  0  0  0  0  0  0  0  0
    1.5000   -2.5981    0.0000 C   0  0  0  0  0  0  0  0  0  0  0  0
    0.2010   -3.3481    0.0000 O   0  0  0  0  0  0  0  0  0  0  0  0
    0.7500   -1.2990    0.0000 C   0  0  0  0  0  0  0  0  0  0  0  0
   -0.7500   -1.2990    0.0000 C   0  0  0  0  0  0  0  0  0  0  0  0
   -1.5000    0.0000    0.0000 C   0  0  0  0  0  0  0  0  0  0  0  0
   -0.7500    1.2990    0.0000 C   0  0  0  0  0  0  0  0  0  0  0  0
    0.7500    1.2990    0.0000 C   0  0  0  0  0  0  0  0  0  0  0  0
    1.5000    0.0000    0.0000 C   0  0  0  0  0  0  0  0  0  0  0  0
    2.7990   -1.8481    0.0000 C   0  0  0  0  0  0  0  0  0  0  0  0
    4.0981   -2.5981    0.0000 C   0  0  0  0  0  0  0  0  0  0  0  0
    5.3971   -1.8481    0.0000 C   0  0  0  0  0  0  0  0  0  0  0  0
    5.3971   -0.3481    0.0000 C   0  0  0  0  0  0  0  0  0  0  0  0
    4.0981    0.4019    0.0000 C   0  0  0  0  0  0  0  0  0  0  0  0
    2.7990   -0.3481    0.0000 C   0  0  0  0  0  0  0  0  0  0  0  0
    2.2256    0.2057    0.0000 Cl  0  0  0  0  0  0  0  0  0  0  0  0
  2  3  1  0
  3  4  1  0
  3  5  1  0
  5  6  1  0
  6  7  1  0
  7  8  1  0
  7  9  1  0
  9 10  2  0
 10 11  1  0
 11 12  2  0
 12 13  1  0
 13 14  2  0
  7 15  1  0
 15 16  2  0
 16 17  1  0
 17 18  2  0
 18 19  1  0
 19 20  2  0
 20 21  1  0
 14  9  1  0
 20 15  1  0
M  END
$$$$
674587
     RDKit          2D

 22 23  0  0  0  0  0  0  0  0999 V2000
    0.0000    2.2990    0.0000 Cl  0  0  0  0  0  0  0  0  0  0  0  0
    8.1129   -3.6696    0.0000 C   0  0  0  0  0  0  0  0  0  0  0  0
    6.6505   -4.0034    0.0000 N   0  0  0  0  0  0  0  0  0  0  0  0
    6.2084   -5.4367    0.0000 C   0  0  0  0  0  0  0  0  0  0  0  0
    5.6303   -2.9038    0.0000 C   0  0  0  0  0  0  0  0  0  0  0  0
    4.1679   -3.2376    0.0000 C   0  0  0  0  0  0  0  0  0  0  0  0
    3.1476   -2.1380    0.0000 C   0  0  0  0  0  0  0  0  0  0  0  0
    1.6852   -2.4718    0.0000 C   0  0  0  0  0  0  0  0  0  0  0  0
    0.7500   -1.2990    0.0000 C   0  0  0  0  0  0  0  0  0  0  0  0
    1.5000    0.0000    0.0000 C   0  0  0  0  0  0  0  0  0  0  0  0
    0.7500    1.2990    0.0000 C   0  0  0  0  0  0  0  0  0  0  0  0
   -0.7500    1.2990    0.0000 C   0  0  0  0  0  0  0  0  0  0  0  0
   -1.5000    0.0000    0.0000 C   0  0  0  0  0  0  0  0  0  0  0  0
   -0.7500   -1.2990    0.0000 C   0  0  0  0  0  0  0  0  0  0  0  0
   -1.6852   -2.4718    0.0000 C   0  0  0  0  0  0  0  0  0  0  0  0
   -1.3515   -3.9342    0.0000 C   0  0  0  0  0  0  0  0  0  0  0  0
   -0.0000   -4.5850    0.0000 C   0  0  0  0  0  0  0  0  0  0  0  0
   -0.1121   -6.0808    0.0000 C   0  0  0  0  0  0  0  0  0  0  0  0
    1.1273   -6.9258    0.0000 C   0  0  0  0  0  0  0  0  0  0  0  0
    2.4787   -6.2750    0.0000 C   0  0  0  0  0  0  0  0  0  0  0  0
    2.5908   -4.7792    0.0000 C   0  0  0  0  0  0  0  0  0  0  0  0
    1.3515   -3.9342    0.0000 C   0  0  0  0  0  0  0  0  0  0  0  0
  2  3  1  0
  3  4  1  0
  3  5  1  0
  5  6  1  0
  6  7  1  0
  7  8  2  0
  8  9  1  0
  9 10  2  0
 10 11  1  0
 11 12  2  0
 12 13  1  0
 13 14  2  0
 14 15  1  0
 15 16  2  0
 16 17  1  0
 17 18  2  0
 18 19  1  0
 19 20  2  0
 20 21  1  0
 21 22  2  0
 22  8  1  0
 14  9  1  0
 22 17  1  0
M  END
$$$$
674915
     RDKit          2D

 22 23  0  0  0  0  0  0  0  0999 V2000
    0.0000    2.2990    0.0000 Cl  0  0  0  0  0  0  0  0  0  0  0  0
    8.1129   -3.6696    0.0000 C   0  0  0  0  0  0  0  0  0  0  0  0
    6.6505   -4.0034    0.0000 N   0  0  0  0  0  0  0  0  0  0  0  0
    6.2084   -5.4367    0.0000 C   0  0  0  0  0  0  0  0  0  0  0  0
    5.6303   -2.9038    0.0000 C   0  0  0  0  0  0  0  0  0  0  0  0
    4.1679   -3.2376    0.0000 C   0  0  0  0  0  0  0  0  0  0  0  0
    3.1476   -2.1380    0.0000 C   0  0  0  0  0  0  0  0  0  0  0  0
    1.6852   -2.4718    0.0000 C   0  0  0  0  0  0  0  0  0  0  0  0
    0.7500   -1.2990    0.0000 C   0  0  0  0  0  0  0  0  0  0  0  0
    1.5000    0.0000    0.0000 C   0  0  0  0  0  0  0  0  0  0  0  0
    0.7500    1.2990    0.0000 C   0  0  0  0  0  0  0  0  0  0  0  0
   -0.7500    1.2990    0.0000 C   0  0  0  0  0  0  0  0  0  0  0  0
   -1.5000    0.0000    0.0000 C   0  0  0  0  0  0  0  0  0  0  0  0
   -0.7500   -1.2990    0.0000 C   0  0  0  0  0  0  0  0  0  0  0  0
   -1.6852   -2.4718    0.0000 C   0  0  0  0  0  0  0  0  0  0  0  0
   -1.3515   -3.9342    0.0000 C   0  0  0  0  0  0  0  0  0  0  0  0
   -0.0000   -4.5850    0.0000 C   0  0  0  0  0  0  0  0  0  0  0  0
   -0.1121   -6.0808    0.0000 C   0  0  0  0  0  0  0  0  0  0  0  0
    1.1273   -6.9258    0.0000 C   0  0  0  0  0  0  0  0  0  0  0  0
    2.4787   -6.2750    0.0000 C   0  0  0  0  0  0  0  0  0  0  0  0
    2.5908   -4.7792    0.0000 C   0  0  0  0  0  0  0  0  0  0  0  0
    1.3515   -3.9342    0.0000 C   0  0  0  0  0  0  0  0  0  0  0  0
  2  3  1  0
  3  4  1  0
  3  5  1  0
  5  6  1  0
  6  7  1  0
  7  8  2  0
  8  9  1  0
  9 10  2  0
 10 11  1  0
 11 12  2  0
 12 13  1  0
 13 14  2  0
 14 15  1  0
 15 16  1  0
 16 17  1  0
 17 18  2  0
 18 19  1  0
 19 20  2  0
 20 21  1  0
 21 22  2  0
 22  8  1  0
 14  9  1  0
 22 17  1  0
M  END
$$$$
1051125
     RDKit          2D

 22 23  0  0  0  0  0  0  0  0999 V2000
    0.0000    2.2990    0.0000 Cl  0  0  0  0  0  0  0  0  0  0  0  0
    8.1129   -3.6696    0.0000 C   0  0  0  0  0  0  0  0  0  0  0  0
    6.6505   -4.0034    0.0000 N   0  0  0  0  0  0  0  0  0  0  0  0
    6.2084   -5.4367    0.0000 C   0  0  0  0  0  0  0  0  0  0  0  0
    5.6303   -2.9038    0.0000 C   0  0  0  0  0  0  0  0  0  0  0  0
    4.1679   -3.2376    0.0000 C   0  0  0  0  0  0  0  0  0  0  0  0
    3.1476   -2.1380    0.0000 C   0  0  0  0  0  0  0  0  0  0  0  0
    1.6852   -2.4718    0.0000 C   0  0  0  0  0  0  0  0  0  0  0  0
    0.7500   -1.2990    0.0000 C   0  0  0  0  0  0  0  0  0  0  0  0
    1.5000    0.0000    0.0000 C   0  0  0  0  0  0  0  0  0  0  0  0
    0.7500    1.2990    0.0000 C   0  0  0  0  0  0  0  0  0  0  0  0
   -0.7500    1.2990    0.0000 C   0  0  0  0  0  0  0  0  0  0  0  0
   -1.5000    0.0000    0.0000 C   0  0  0  0  0  0  0  0  0  0  0  0
   -0.7500   -1.2990    0.0000 C   0  0  0  0  0  0  0  0  0  0  0  0
   -1.6852   -2.4718    0.0000 C   0  0  0  0  0  0  0  0  0  0  0  0
   -1.3515   -3.9342    0.0000 O   0  0  0  0  0  0  0  0  0  0  0  0
   -0.0000   -4.5850    0.0000 C   0  0  0  0  0  0  0  0  0  0  0  0
   -0.1121   -6.0808    0.0000 C   0  0  0  0  0  0  0  0  0  0  0  0
    1.1273   -6.9258    0.0000 C   0  0  0  0  0  0  0  0  0  0  0  0
    2.4787   -6.2750    0.0000 C   0  0  0  0  0  0  0  0  0  0  0  0
    2.5908   -4.7792    0.0000 C   0  0  0  0  0  0  0  0  0  0  0  0
    1.3515   -3.9342    0.0000 C   0  0  0  0  0  0  0  0  0  0  0  0
  2  3  1  0
  3  4  1  0
  3  5  1  0
  5  6  1  0
  6  7  1  0
  7  8  2  3
  8  9  1  0
  9 10  2  0
 10 11  1  0
 11 12  2  0
 12 13  1  0
 13 14  2  0
 14 15  1  0
 15 16  1  0
 16 17  1  0
 17 18  2  0
 18 19  1  0
 19 20  2  0
 20 21  1  0
 21 22  2  0
 22  8  1  0
 14  9  1  0
 22 17  1  0
M  END
$$$$
674661
     RDKit          2D

 23 24  0  0  0  0  0  0  0  0999 V2000
    0.0000    2.2990    0.0000 Cl  0  0  0  0  0  0  0  0  0  0  0  0
    8.1129   -3.6696    0.0000 C   0  0  0  0  0  0  0  0  0  0  0  0
    6.6505   -4.0034    0.0000 N   0  0  0  0  0  0  0  0  0  0  0  0
    6.2084   -5.4367    0.0000 C   0  0  0  0  0  0  0  0  0  0  0  0
    5.6303   -2.9038    0.0000 C   0  0  0  0  0  0  0  0  0  0  0  0
    4.1679   -3.2376    0.0000 C   0  0  0  0  0  0  0  0  0  0  0  0
    3.1476   -2.1380    0.0000 C   0  0  0  0  0  0  0  0  0  0  0  0
    1.6852   -2.4718    0.0000 N   0  0  0  0  0  0  0  0  0  0  0  0
    0.7500   -1.2990    0.0000 C   0  0  0  0  0  0  0  0  0  0  0  0
    1.5000    0.0000    0.0000 C   0  0  0  0  0  0  0  0  0  0  0  0
    0.7500    1.2990    0.0000 C   0  0  0  0  0  0  0  0  0  0  0  0
   -0.7500    1.2990    0.0000 C   0  0  0  0  0  0  0  0  0  0  0  0
   -1.5000    0.0000    0.0000 C   0  0  0  0  0  0  0  0  0  0  0  0
   -0.7500   -1.2990    0.0000 C   0  0  0  0  0  0  0  0  0  0  0  0
   -1.6852   -2.4718    0.0000 C   0  0  0  0  0  0  0  0  0  0  0  0
   -1.3515   -3.9342    0.0000 C   0  0  0  0  0  0  0  0  0  0  0  0
   -0.0000   -4.5850    0.0000 C   0  0  0  0  0  0  0  0  0  0  0  0
   -0.1121   -6.0808    0.0000 C   0  0  0  0  0  0  0  0  0  0  0  0
    1.1273   -6.9258    0.0000 C   0  0  0  0  0  0  0  0  0  0  0  0
    2.4787   -6.2750    0.0000 C   0  0  0  0  0  0  0  0  0  0  0  0
    3.7181   -7.1199    0.0000 Cl  0  0  0  0  0  0  0  0  0  0  0  0
    2.5908   -4.7792    0.0000 C   0  0  0  0  0  0  0  0  0  0  0  0
    1.3515   -3.9342    0.0000 C   0  0  0  0  0  0  0  0  0  0  0  0
  2  3  1  0
  3  4  1  0
  3  5  1  0
  5  6  1  0
  6  7  1  0
  7  8  1  0
  8  9  1  0
  9 10  2  0
 10 11  1  0
 11 12  2  0
 12 13  1  0
 13 14  2  0
 14 15  1  0
 15 16  1  0
 16 17  1  0
 17 18  2  0
 18 19  1  0
 19 20  2  0
 20 21  1  0
 20 22  1  0
 22 23  2  0
 23  8  1  0
 14  9  1  0
 23 17  1  0
M  END
$$$$
543658
     RDKit          2D

 22 23  0  0  0  0  0  0  0  0999 V2000
    0.0000    2.2990    0.0000 Cl  0  0  0  0  0  0  0  0  0  0  0  0
    8.1129   -3.6696    0.0000 C   0  0  0  0  0  0  0  0  0  0  0  0
    6.6505   -4.0034    0.0000 N   0  0  0  0  0  0  0  0  0  0  0  0
    6.2084   -5.4367    0.0000 C   0  0  0  0  0  0  0  0  0  0  0  0
    5.6303   -2.9038    0.0000 C   0  0  0  0  0  0  0  0  0  0  0  0
    4.1679   -3.2376    0.0000 C   0  0  0  0  0  0  0  0  0  0  0  0
    3.1476   -2.1380    0.0000 C   0  0  0  0  0  0  0  0  0  0  0  0
    1.6852   -2.4718    0.0000 N   0  0  0  0  0  0  0  0  0  0  0  0
    0.7500   -1.2990    0.0000 C   0  0  0  0  0  0  0  0  0  0  0  0
    1.5000    0.0000    0.0000 C   0  0  0  0  0  0  0  0  0  0  0  0
    0.7500    1.2990    0.0000 C   0  0  0  0  0  0  0  0  0  0  0  0
   -0.7500    1.2990    0.0000 C   0  0  0  0  0  0  0  0  0  0  0  0
   -1.5000    0.0000    0.0000 C   0  0  0  0  0  0  0  0  0  0  0  0
   -0.7500   -1.2990    0.0000 C   0  0  0  0  0  0  0  0  0  0  0  0
   -1.6852   -2.4718    0.0000 C   0  0  0  0  0  0  0  0  0  0  0  0
   -1.3515   -3.9342    0.0000 C   0  0  0  0  0  0  0  0  0  0  0  0
   -0.0000   -4.5850    0.0000 C   0  0  0  0  0  0  0  0  0  0  0  0
   -0.1121   -6.0808    0.0000 C   0  0  0  0  0  0  0  0  0  0  0  0
    1.1273   -6.9258    0.0000 C   0  0  0  0  0  0  0  0  0  0  0  0
    2.4787   -6.2750    0.0000 C   0  0  0  0  0  0  0  0  0  0  0  0
    2.5908   -4.7792    0.0000 C   0  0  0  0  0  0  0  0  0  0  0  0
    1.3515   -3.9342    0.0000 C   0  0  0  0  0  0  0  0  0  0  0  0
  2  3  1  0
  3  4  1  0
  3  5  1  0
  5  6  1  0
  6  7  1  0
  7  8  1  0
  8  9  1  0
  9 10  2  0
 10 11  1  0
 11 12  2  0
 12 13  1  0
 13 14  2  0
 14 15  1  0
 15 16  1  0
 16 17  1  0
 17 18  2  0
 18 19  1  0
 19 20  2  0
 20 21  1  0
 21 22  2  0
 22  8  1  0
 14  9  1  0
 22 17  1  0
M  END
$$$$
675053
     RDKit          2D

 25 26  0  0  0  0  0  0  0  0999 V2000
    8.5000    0.0000    0.0000 Cl  0  0  0  0  0  0  0  0  0  0  0  0
    7.5000   -5.1962    0.0000 C   0  0  0  0  0  0  0  0  0  0  0  0
    6.0000   -5.1962    0.0000 N   0  0  0  0  0  0  0  0  0  0  0  0
    5.2500   -6.4952    0.0000 C   0  0  0  0  0  0  0  0  0  0  0  0
    5.2500   -3.8971    0.0000 C   0  0  0  0  0  0  0  0  0  0  0  0
    3.7500   -3.8971    0.0000 C   0  0  0  0  0  0  0  0  0  0  0  0
    3.0000   -2.5981    0.0000 C   0  0  0  0  0  0  0  0  0  0  0  0
    1.5000   -2.5981    0.0000 N   0  0  0  0  0  0  0  0  0  0  0  0
    0.7500   -1.2990    0.0000 C   0  0  0  0  0  0  0  0  0  0  0  0
    1.5000    0.0000    0.0000 C   0  0  0  0  0  0  0  0  0  0  0  0
    0.7500    1.2990    0.0000 C   0  0  0  0  0  0  0  0  0  0  0  0
   -0.7500    1.2990    0.0000 C   0  0  0  0  0  0  0  0  0  0  0  0
   -1.5000    0.0000    0.0000 C   0  0  0  0  0  0  0  0  0  0  0  0
   -0.7500   -1.2990    0.0000 C   0  0  0  0  0  0  0  0  0  0  0  0
   -1.5000   -2.5981    0.0000 S   0  0  0  0  0  0  0  0  0  0  0  0
   -0.7500   -3.8971    0.0000 C   0  0  0  0  0  0  0  0  0  0  0  0
   -1.5000   -5.1962    0.0000 C   0  0  0  0  0  0  0  0  0  0  0  0
   -0.7500   -6.4952    0.0000 C   0  0  0  0  0  0  0  0  0  0  0  0
    0.7500   -6.4952    0.0000 C   0  0  0  0  0  0  0  0  0  0  0  0
    1.5000   -5.1962    0.0000 C   0  0  0  0  0  0  0  0  0  0  0  0
    0.7500   -3.8971    0.0000 C   0  0  0  0  0  0  0  0  0  0  0  0
    1.5000   -7.7942    0.0000 C   0  0  0  0  0  0  0  0  0  0  0  0
    2.2500   -9.0933    0.0000 F   0  0  0  0  0  0  0  0  0  0  0  0
    0.2010   -8.5442    0.0000 F   0  0  0  0  0  0  0  0  0  0  0  0
    2.7990   -7.0442    0.0000 F   0  0  0  0  0  0  0  0  0  0  0  0
  2  3  1  0
  3  4  1  0
  3  5  1  0
  5  6  1  0
  6  7  1  0
  7  8  1  0
  8  9  1  0
  9 10  2  0
 10 11  1  0
 11 12  2  0
 12 13  1  0
 13 14  2  0
 14 15  1  0
 15 16  1  0
 16 17  2  0
 17 18  1  0
 18 19  2  0
 19 20  1  0
 20 21  2  0
 19 22  1  0
 22 23  1  0
 22 24  1  0
 22 25  1  0
 21  8  1  0
 14  9  1  0
 21 16  1  0
M  END
$$$$
550303
     RDKit          2D

 22 23  0  0  0  0  0  0  0  0999 V2000
    8.5000    0.0000    0.0000 Cl  0  0  0  0  0  0  0  0  0  0  0  0
    7.5000   -5.1962    0.0000 C   0  0  0  0  0  0  0  0  0  0  0  0
    6.0000   -5.1962    0.0000 N   0  0  0  0  0  0  0  0  0  0  0  0
    5.2500   -6.4952    0.0000 C   0  0  0  0  0  0  0  0  0  0  0  0
    5.2500   -3.8971    0.0000 C   0  0  0  0  0  0  0  0  0  0  0  0
    3.7500   -3.8971    0.0000 C   0  0  0  0  0  0  0  0  0  0  0  0
    3.0000   -2.5981    0.0000 C   0  0  0  0  0  0  0  0  0  0  0  0
    1.5000   -2.5981    0.0000 N   0  0  0  0  0  0  0  0  0  0  0  0
    0.7500   -1.2990    0.0000 C   0  0  0  0  0  0  0  0  0  0  0  0
    1.5000    0.0000    0.0000 C   0  0  0  0  0  0  0  0  0  0  0  0
    0.7500    1.2990    0.0000 C   0  0  0  0  0  0  0  0  0  0  0  0
   -0.7500    1.2990    0.0000 C   0  0  0  0  0  0  0  0  0  0  0  0
   -1.5000    0.0000    0.0000 C   0  0  0  0  0  0  0  0  0  0  0  0
   -0.7500   -1.2990    0.0000 C   0  0  0  0  0  0  0  0  0  0  0  0
   -1.5000   -2.5981    0.0000 S   0  0  0  0  0  0  0  0  0  0  0  0
   -0.7500   -3.8971    0.0000 C   0  0  0  0  0  0  0  0  0  0  0  0
   -1.5000   -5.1962    0.0000 C   0  0  0  0  0  0  0  0  0  0  0  0
   -0.7500   -6.4952    0.0000 C   0  0  0  0  0  0  0  0  0  0  0  0
    0.7500   -6.4952    0.0000 C   0  0  0  0  0  0  0  0  0  0  0  0
    1.5000   -7.7942    0.0000 Cl  0  0  0  0  0  0  0  0  0  0  0  0
    1.5000   -5.1962    0.0000 C   0  0  0  0  0  0  0  0  0  0  0  0
    0.7500   -3.8971    0.0000 C   0  0  0  0  0  0  0  0  0  0  0  0
  2  3  1  0
  3  4  1  0
  3  5  1  0
  5  6  1  0
  6  7  1  0
  7  8  1  0
  8  9  1  0
  9 10  2  0
 10 11  1  0
 11 12  2  0
 12 13  1  0
 13 14  2  0
 14 15  1  0
 15 16  1  0
 16 17  2  0
 17 18  1  0
 18 19  2  0
 19 20  1  0
 19 21  1  0
 21 22  2  0
 22  8  1  0
 14  9  1  0
 22 16  1  0
M  END
$$$$
674420
     RDKit          2D

 21 22  0  0  0  0  0  0  0  0999 V2000
    0.0000    2.2990    0.0000 Cl  0  0  0  0  0  0  0  0  0  0  0  0
    7.5000   -5.1962    0.0000 C   0  0  0  0  0  0  0  0  0  0  0  0
    6.0000   -5.1962    0.0000 N   0  0  0  0  0  0  0  0  0  0  0  0
    5.2500   -6.4952    0.0000 C   0  0  0  0  0  0  0  0  0  0  0  0
    5.2500   -3.8971    0.0000 C   0  0  0  0  0  0  0  0  0  0  0  0
    3.7500   -3.8971    0.0000 C   0  0  0  0  0  0  0  0  0  0  0  0
    3.0000   -2.5981    0.0000 C   0  0  0  0  0  0  0  0  0  0  0  0
    1.5000   -2.5981    0.0000 N   0  0  0  0  0  0  0  0  0  0  0  0
    0.7500   -1.2990    0.0000 C   0  0  0  0  0  0  0  0  0  0  0  0
    1.5000    0.0000    0.0000 C   0  0  0  0  0  0  0  0  0  0  0  0
    0.7500    1.2990    0.0000 C   0  0  0  0  0  0  0  0  0  0  0  0
   -0.7500    1.2990    0.0000 C   0  0  0  0  0  0  0  0  0  0  0  0
   -1.5000    0.0000    0.0000 C   0  0  0  0  0  0  0  0  0  0  0  0
   -0.7500   -1.2990    0.0000 C   0  0  0  0  0  0  0  0  0  0  0  0
   -1.5000   -2.5981    0.0000 S   0  0  0  0  0  0  0  0  0  0  0  0
   -0.7500   -3.8971    0.0000 C   0  0  0  0  0  0  0  0  0  0  0  0
   -1.5000   -5.1962    0.0000 C   0  0  0  0  0  0  0  0  0  0  0  0
   -0.7500   -6.4952    0.0000 C   0  0  0  0  0  0  0  0  0  0  0  0
    0.7500   -6.4952    0.0000 C   0  0  0  0  0  0  0  0  0  0  0  0
    1.5000   -5.1962    0.0000 C   0  0  0  0  0  0  0  0  0  0  0  0
    0.7500   -3.8971    0.0000 C   0  0  0  0  0  0  0  0  0  0  0  0
  2  3  1  0
  3  4  1  0
  3  5  1  0
  5  6  1  0
  6  7  1  0
  7  8  1  0
  8  9  1  0
  9 10  2  0
 10 11  1  0
 11 12  2  0
 12 13  1  0
 13 14  2  0
 14 15  1  0
 15 16  1  0
 16 17  2  0
 17 18  1  0
 18 19  2  0
 19 20  1  0
 20 21  2  0
 21  8  1  0
 14  9  1  0
 21 16  1  0
M  END
$$$$
674397
     RDKit          2D

 20 20  0  0  0  0  0  0  0  0999 V2000
    4.0000    0.0000    0.0000 Cl  0  0  0  0  0  0  0  0  0  0  0  0
    0.7500   -9.0933    0.0000 C   0  0  0  0  0  0  0  0  0  0  0  0
    1.5000   -7.7942    0.0000 N   0  0  0  0  0  0  0  0  0  0  0  0
    3.0000   -7.7942    0.0000 C   0  0  0  0  0  0  0  0  0  0  0  0
    0.7500   -6.4952    0.0000 C   0  0  0  0  0  0  0  0  0  0  0  0
    1.5000   -5.1962    0.0000 C   0  0  0  0  0  0  0  0  0  0  0  0
    0.7500   -3.8971    0.0000 N   0  0  0  0  0  0  0  0  0  0  0  0
    1.5000   -2.5981    0.0000 C   0  0  0  0  0  0  0  0  0  0  0  0
    0.7500   -1.2990    0.0000 C   0  0  0  0  0  0  0  0  0  0  0  0
    1.5000    0.0000    0.0000 C   0  0  0  0  0  0  0  0  0  0  0  0
    0.7500    1.2990    0.0000 C   0  0  0  0  0  0  0  0  0  0  0  0
   -0.7500    1.2990    0.0000 C   0  0  0  0  0  0  0  0  0  0  0  0
   -1.5000    0.0000    0.0000 C   0  0  0  0  0  0  0  0  0  0  0  0
   -0.7500   -1.2990    0.0000 C   0  0  0  0  0  0  0  0  0  0  0  0
   -0.7500   -3.8971    0.0000 C   0  0  0  0  0  0  0  0  0  0  0  0
   -1.5000   -2.5981    0.0000 C   0  0  0  0  0  0  0  0  0  0  0  0
   -3.0000   -2.5981    0.0000 C   0  0  0  0  0  0  0  0  0  0  0  0
   -3.7500   -3.8971    0.0000 C   0  0  0  0  0  0  0  0  0  0  0  0
   -3.0000   -5.1962    0.0000 C   0  0  0  0  0  0  0  0  0  0  0  0
   -1.5000   -5.1962    0.0000 N   0  0  0  0  0  0  0  0  0  0  0  0
  2  3  1  0
  3  4  1  0
  3  5  1  0
  5  6  1  0
  6  7  1  0
  7  8  1  0
  8  9  1  0
  9 10  2  0
 10 11  1  0
 11 12  2  0
 12 13  1  0
 13 14  2  0
  7 15  1  0
 15 16  2  0
 16 17  1  0
 17 18  2  0
 18 19  1  0
 19 20  2  0
 14  9  1  0
 20 15  1  0
M  END
$$$$
674918
     RDKit          2D

 21 21  0  0  0  0  0  0  0  0999 V2000
    8.5000    0.0000    0.0000 Cl  0  0  0  0  0  0  0  0  0  0  0  0
    7.5000   -5.1962    0.0000 C   0  0  0  0  0  0  0  0  0  0  0  0
    6.0000   -5.1962    0.0000 N   0  0  0  0  0  0  0  0  0  0  0  0
    5.2500   -6.4952    0.0000 C   0  0  0  0  0  0  0  0  0  0  0  0
    5.2500   -3.8971    0.0000 C   0  0  0  0  0  0  0  0  0  0  0  0
    3.7500   -3.8971    0.0000 C   0  0  0  0  0  0  0  0  0  0  0  0
    3.0000   -2.5981    0.0000 O   0  0  0  0  0  0  0  0  0  0  0  0
    1.5000   -2.5981    0.0000 C   0  0  0  0  0  0  0  0  0  0  0  0
    0.7500   -1.2990    0.0000 C   0  0  0  0  0  0  0  0  0  0  0  0
    1.5000    0.0000    0.0000 C   0  0  0  0  0  0  0  0  0  0  0  0
    0.7500    1.2990    0.0000 C   0  0  0  0  0  0  0  0  0  0  0  0
   -0.7500    1.2990    0.0000 C   0  0  0  0  0  0  0  0  0  0  0  0
   -1.5000    0.0000    0.0000 C   0  0  0  0  0  0  0  0  0  0  0  0
   -0.7500   -1.2990    0.0000 C   0  0  0  0  0  0  0  0  0  0  0  0
    0.7500   -3.8971    0.0000 C   0  0  0  0  0  0  0  0  0  0  0  0
   -0.7500   -3.8971    0.0000 C   0  0  0  0  0  0  0  0  0  0  0  0
   -1.5000   -5.1962    0.0000 C   0  0  0  0  0  0  0  0  0  0  0  0
   -0.7500   -6.4952    0.0000 C   0  0  0  0  0  0  0  0  0  0  0  0
   -1.5000   -7.7942    0.0000 Br  0  0  0  0  0  0  0  0  0  0  0  0
    0.7500   -6.4952    0.0000 C   0  0  0  0  0  0  0  0  0  0  0  0
    1.5000   -5.1962    0.0000 C   0  0  0  0  0  0  0  0  0  0  0  0
  2  3  1  0
  3  4  1  0
  3  5  1  0
  5  6  1  0
  6  7  1  0
  7  8  1  0
  8  9  1  0
  9 10  2  0
 10 11  1  0
 11 12  2  0
 12 13  1  0
 13 14  2  0
  8 15  1  0
 15 16  2  0
 16 17  1  0
 17 18  2  0
 18 19  1  0
 18 20  1  0
 20 21  2  0
 14  9  1  0
 21 15  1  0
M  END
$$$$
468199
     RDKit          2D

 20 20  0  0  0  0  0  0  0  0999 V2000
    0.0000    2.2990    0.0000 Cl  0  0  0  0  0  0  0  0  0  0  0  0
    7.5000   -5.1962    0.0000 C   0  0  0  0  0  0  0  0  0  0  0  0
    6.0000   -5.1962    0.0000 N   0  0  0  0  0  0  0  0  0  0  0  0
    5.2500   -6.4952    0.0000 C   0  0  0  0  0  0  0  0  0  0  0  0
    5.2500   -3.8971    0.0000 C   0  0  0  0  0  0  0  0  0  0  0  0
    3.7500   -3.8971    0.0000 C   0  0  0  0  0  0  0  0  0  0  0  0
    3.0000   -2.5981    0.0000 O   0  0  0  0  0  0  0  0  0  0  0  0
    1.5000   -2.5981    0.0000 C   0  0  0  0  0  0  0  0  0  0  0  0
    0.7500   -1.2990    0.0000 C   0  0  0  0  0  0  0  0  0  0  0  0
    1.5000    0.0000    0.0000 C   0  0  0  0  0  0  0  0  0  0  0  0
    0.7500    1.2990    0.0000 C   0  0  0  0  0  0  0  0  0  0  0  0
   -0.7500    1.2990    0.0000 C   0  0  0  0  0  0  0  0  0  0  0  0
   -1.5000    0.0000    0.0000 C   0  0  0  0  0  0  0  0  0  0  0  0
   -0.7500   -1.2990    0.0000 C   0  0  0  0  0  0  0  0  0  0  0  0
    0.7500   -3.8971    0.0000 C   0  0  0  0  0  0  0  0  0  0  0  0
   -0.7500   -3.8971    0.0000 C   0  0  0  0  0  0  0  0  0  0  0  0
   -1.5000   -5.1962    0.0000 C   0  0  0  0  0  0  0  0  0  0  0  0
   -0.7500   -6.4952    0.0000 C   0  0  0  0  0  0  0  0  0  0  0  0
    0.7500   -6.4952    0.0000 C   0  0  0  0  0  0  0  0  0  0  0  0
    1.5000   -5.1962    0.0000 C   0  0  0  0  0  0  0  0  0  0  0  0
  2  3  1  0
  3  4  1  0
  3  5  1  0
  5  6  1  0
  6  7  1  0
  7  8  1  0
  8  9  1  0
  9 10  2  0
 10 11  1  0
 11 12  2  0
 12 13  1  0
 13 14  2  0
  8 15  1  0
 15 16  2  0
 16 17  1  0
 17 18  2  0
 18 19  1  0
 19 20  2  0
 14  9  1  0
 20 15  1  0
M  END
$$$$
674974
     RDKit          2D

 21 21  0  0  0  0  0  0  0  0999 V2000
    0.0000    2.2990    0.0000 Cl  0  0  0  0  0  0  0  0  0  0  0  0
    7.5000   -5.1962    0.0000 C   0  0  0  0  0  0  0  0  0  0  0  0
    6.0000   -5.1962    0.0000 N   0  0  0  0  0  0  0  0  0  0  0  0
    5.2500   -6.4952    0.0000 C   0  0  0  0  0  0  0  0  0  0  0  0
    5.2500   -3.8971    0.0000 C   0  0  0  0  0  0  0  0  0  0  0  0
    3.7500   -3.8971    0.0000 C   0  0  0  0  0  0  0  0  0  0  0  0
    3.0000   -2.5981    0.0000 O   0  0  0  0  0  0  0  0  0  0  0  0
    1.5000   -2.5981    0.0000 C   0  0  0  0  0  0  0  0  0  0  0  0
    0.7500   -1.2990    0.0000 C   0  0  0  0  0  0  0  0  0  0  0  0
    1.5000    0.0000    0.0000 C   0  0  0  0  0  0  0  0  0  0  0  0
    0.7500    1.2990    0.0000 C   0  0  0  0  0  0  0  0  0  0  0  0
   -0.7500    1.2990    0.0000 C   0  0  0  0  0  0  0  0  0  0  0  0
   -1.5000    0.0000    0.0000 C   0  0  0  0  0  0  0  0  0  0  0  0
   -0.7500   -1.2990    0.0000 C   0  0  0  0  0  0  0  0  0  0  0  0
    0.7500   -3.8971    0.0000 C   0  0  0  0  0  0  0  0  0  0  0  0
   -0.7500   -3.8971    0.0000 C   0  0  0  0  0  0  0  0  0  0  0  0
   -1.5000   -5.1962    0.0000 C   0  0  0  0  0  0  0  0  0  0  0  0
   -0.7500   -6.4952    0.0000 C   0  0  0  0  0  0  0  0  0  0  0  0
    0.7500   -6.4952    0.0000 C   0  0  0  0  0  0  0  0  0  0  0  0
    1.5000   -5.1962    0.0000 C   0  0  0  0  0  0  0  0  0  0  0  0
    3.0000   -5.1962    0.0000 C   0  0  0  0  0  0  0  0  0  0  0  0
  2  3  1  0
  3  4  1  0
  3  5  1  0
  5  6  1  0
  6  7  1  0
  7  8  1  0
  8  9  1  0
  9 10  2  0
 10 11  1  0
 11 12  2  0
 12 13  1  0
 13 14  2  0
  8 15  1  0
 15 16  2  0
 16 17  1  0
 17 18  2  0
 18 19  1  0
 19 20  2  0
 20 21  1  0
 14  9  1  0
 20 15  1  0
M  END
$$$$
674853
     RDKit          2D

 31 33  0  0  0  0  0  0  0  0999 V2000
    2.5000    0.0000    0.0000 Cl  0  0  0  0  0  0  0  0  0  0  0  0
   -1.5000  -10.3923    0.0000 C   0  0  0  0  0  0  0  0  0  0  0  0
   -2.2500   -9.0933    0.0000 N   0  0  0  0  0  0  0  0  0  0  0  0
   -3.7500   -9.0933    0.0000 C   0  0  0  0  0  0  0  0  0  0  0  0
   -1.5000   -7.7942    0.0000 S   0  0  0  0  0  0  0  0  0  0  0  0
   -2.7990   -7.0442    0.0000 O   0  0  0  0  0  0  0  0  0  0  0  0
   -0.2010   -8.5442    0.0000 O   0  0  0  0  0  0  0  0  0  0  0  0
   -0.7500   -6.4952    0.0000 C   0  0  0  0  0  0  0  0  0  0  0  0
    0.7500   -6.4952    0.0000 C   0  0  0  0  0  0  0  0  0  0  0  0
    1.5000   -5.1962    0.0000 C   0  0  0  0  0  0  0  0  0  0  0  0
    0.7500   -3.8971    0.0000 C   0  0  0  0  0  0  0  0  0  0  0  0
    1.5000   -2.5981    0.0000 S   0  0  0  0  0  0  0  0  0  0  0  0
    0.7500   -1.2990    0.0000 C   0  0  0  0  0  0  0  0  0  0  0  0
    1.5000    0.0000    0.0000 C   0  0  0  0  0  0  0  0  0  0  0  0
    0.7500    1.2990    0.0000 C   0  0  0  0  0  0  0  0  0  0  0  0
   -0.7500    1.2990    0.0000 C   0  0  0  0  0  0  0  0  0  0  0  0
   -1.5000    0.0000    0.0000 C   0  0  0  0  0  0  0  0  0  0  0  0
   -0.7500   -1.2990    0.0000 C   0  0  0  0  0  0  0  0  0  0  0  0
   -1.5000   -2.5981    0.0000 C   0  0  0  0  0  0  0  0  0  0  0  0
   -3.0000   -2.5981    0.0000 C   0  0  0  0  0  0  0  0  0  0  0  0
   -3.7500   -3.8971    0.0000 C   0  0  0  0  0  0  0  0  0  0  0  0
   -5.2500   -3.8971    0.0000 C   0  0  0  0  0  0  0  0  0  0  0  0
   -6.0000   -5.1962    0.0000 N   0  0  0  0  0  0  0  0  0  0  0  0
   -7.5000   -5.1962    0.0000 C   0  0  0  0  0  0  0  0  0  0  0  0
   -8.2500   -6.4952    0.0000 C   0  0  0  0  0  0  0  0  0  0  0  0
   -7.5000   -7.7942    0.0000 N   0  0  0  0  0  0  0  0  0  0  0  0
   -8.2500   -9.0933    0.0000 C   0  0  0  0  0  0  0  0  0  0  0  0
   -6.0000   -7.7942    0.0000 C   0  0  0  0  0  0  0  0  0  0  0  0
   -5.2500   -6.4952    0.0000 C   0  0  0  0  0  0  0  0  0  0  0  0
   -0.7500   -3.8971    0.0000 C   0  0  0  0  0  0  0  0  0  0  0  0
   -1.5000   -5.1962    0.0000 C   0  0  0  0  0  0  0  0  0  0  0  0
  2  3  1  0
  3  4  1  0
  3  5  1  0
  5  6  2  0
  5  7  2  0
  5  8  1  0
  8  9  2  0
  9 10  1  0
 10 11  2  0
 11 12  1  0
 12 13  1  0
 13 14  2  0
 14 15  1  0
 15 16  2  0
 16 17  1  0
 17 18  2  0
 18 19  1  0
 19 20  2  0
 20 21  1  0
 21 22  1  0
 22 23  1  0
 23 24  1  0
 24 25  1  0
 25 26  1  0
 26 27  1  0
 26 28  1  0
 28 29  1  0
 19 30  1  0
 30 31  2  0
 31  8  1  0
 30 11  1  0
 18 13  1  0
 29 23  1  0
M  END
$$$$
674832
     RDKit          2D

 34 36  0  0  0  0  0  0  0  0999 V2000
    4.7500    0.0000    0.0000 Cl  0  0  0  0  0  0  0  0  0  0  0  0
    3.7500   -9.0933    0.0000 C   0  0  0  0  0  0  0  0  0  0  0  0
    3.0000   -7.7942    0.0000 N   0  0  0  0  0  0  0  0  0  0  0  0
    3.7500   -6.4952    0.0000 C   0  0  0  0  0  0  0  0  0  0  0  0
    1.5000   -7.7942    0.0000 C   0  0  0  0  0  0  0  0  0  0  0  0
    0.7500   -6.4952    0.0000 C   0  0  0  0  0  0  0  0  0  0  0  0
    1.5000   -5.1962    0.0000 C   0  0  0  0  0  0  0  0  0  0  0  0
    0.7500   -3.8971    0.0000 C   0  0  0  0  0  0  0  0  0  0  0  0
    1.5000   -2.5981    0.0000 C   0  0  0  0  0  0  0  0  0  0  0  0
    0.7500   -1.2990    0.0000 C   0  0  0  0  0  0  0  0  0  0  0  0
    1.5000    0.0000    0.0000 C   0  0  0  0  0  0  0  0  0  0  0  0
    0.7500    1.2990    0.0000 C   0  0  0  0  0  0  0  0  0  0  0  0
   -0.7500    1.2990    0.0000 C   0  0  0  0  0  0  0  0  0  0  0  0
   -1.5000    0.0000    0.0000 C   0  0  0  0  0  0  0  0  0  0  0  0
   -3.0000    0.0000    0.0000 O   0  0  0  0  0  0  0  0  0  0  0  0
   -0.7500   -1.2990    0.0000 C   0  0  0  0  0  0  0  0  0  0  0  0
   -1.5000   -2.5981    0.0000 C   0  0  0  0  0  0  0  0  0  0  0  0
   -3.0000   -2.5981    0.0000 O   0  0  0  0  0  0  0  0  0  0  0  0
   -0.7500   -3.8971    0.0000 C   0  0  0  0  0  0  0  0  0  0  0  0
   -1.5000   -5.1962    0.0000 C   0  0  0  0  0  0  0  0  0  0  0  0
   -3.0000   -5.1962    0.0000 O   0  0  0  0  0  0  0  0  0  0  0  0
   -0.7500   -6.4952    0.0000 C   0  0  0  0  0  0  0  0  0  0  0  0
   -2.2500   -6.4952    0.0000 O   0  0  0  0  0  0  0  0  0  0  0  0
   -1.5000   -7.7942    0.0000 C   0  0  0  0  0  0  0  0  0  0  0  0
   -3.0000   -7.7942    0.0000 O   0  0  0  0  0  0  0  0  0  0  0  0
   -0.7500   -9.0933    0.0000 C   0  0  0  0  0  0  0  0  0  0  0  0
    0.7500   -9.0933    0.0000 C   0  0  0  0  0  0  0  0  0  0  0  0
    1.5000  -10.3923    0.0000 O   0  0  0  0  0  0  0  0  0  0  0  0
   -1.5000  -10.3923    0.0000 C   0  0  0  0  0  0  0  0  0  0  0  0
   -0.7500  -11.6913    0.0000 O   0  0  0  0  0  0  0  0  0  0  0  0
   -3.0000  -10.3923    0.0000 N   0  0  0  0  0  0  0  0  0  0  0  0
    3.0000    0.0000    0.0000 N   0  0  0  0  0  0  0  0  0  0  0  0
    3.7500    1.2990    0.0000 C   0  0  0  0  0  0  0  0  0  0  0  0
    3.7500   -1.2990    0.0000 C   0  0  0  0  0  0  0  0  0  0  0  0
  2  3  1  0
  3  4  1  0
  5  3  1  6
  5  6  1  0
  6  7  1  1
  8  7  1  1
  8  9  1  0
  9 10  1  0
 10 11  2  0
 11 12  1  0
 12 13  2  0
 13 14  1  0
 14 15  1  0
 14 16  2  0
 16 17  1  0
 17 18  2  0
 17 19  1  0
 19 20  2  0
 20 21  1  0
 20 22  1  0
 22 23  1  6
 22 24  1  0
 24 25  2  0
 24 26  1  0
 26 27  2  0
 27 28  1  0
 26 29  1  0
 29 30  2  0
 29 31  1  0
 11 32  1  0
 32 33  1  0
 32 34  1  0
 27  5  1  0
 22  6  1  0
 19  8  1  0
 16 10  1  0
M  END
$$$$
674425
     RDKit          2D

 33 35  0  0  0  0  0  0  0  0999 V2000
    4.7500    0.0000    0.0000 Cl  0  0  0  0  0  0  0  0  0  0  0  0
    3.7500   -9.0933    0.0000 C   0  0  0  0  0  0  0  0  0  0  0  0
    3.0000   -7.7942    0.0000 N   0  0  0  0  0  0  0  0  0  0  0  0
    3.7500   -6.4952    0.0000 C   0  0  0  0  0  0  0  0  0  0  0  0
    1.5000   -7.7942    0.0000 C   0  0  0  0  0  0  0  0  0  0  0  0
    0.7500   -6.4952    0.0000 C   0  0  0  0  0  0  0  0  0  0  0  0
    1.5000   -5.1962    0.0000 C   0  0  0  0  0  0  0  0  0  0  0  0
    0.7500   -3.8971    0.0000 C   0  0  0  0  0  0  0  0  0  0  0  0
    1.5000   -2.5981    0.0000 C   0  0  0  0  0  0  0  0  0  0  0  0
    3.0000   -2.5981    0.0000 O   0  0  0  0  0  0  0  0  0  0  0  0
    0.7500   -1.2990    0.0000 C   0  0  0  0  0  0  0  0  0  0  0  0
    1.5000    0.0000    0.0000 C   0  0  0  0  0  0  0  0  0  0  0  0
    3.0000    0.0000    0.0000 Cl  0  0  0  0  0  0  0  0  0  0  0  0
    0.7500    1.2990    0.0000 C   0  0  0  0  0  0  0  0  0  0  0  0
   -0.7500    1.2990    0.0000 C   0  0  0  0  0  0  0  0  0  0  0  0
   -1.5000    0.0000    0.0000 C   0  0  0  0  0  0  0  0  0  0  0  0
   -3.0000    0.0000    0.0000 O   0  0  0  0  0  0  0  0  0  0  0  0
   -0.7500   -1.2990    0.0000 C   0  0  0  0  0  0  0  0  0  0  0  0
   -1.5000   -2.5981    0.0000 C   0  0  0  0  0  0  0  0  0  0  0  0
   -3.0000   -2.5981    0.0000 O   0  0  0  0  0  0  0  0  0  0  0  0
   -0.7500   -3.8971    0.0000 C   0  0  0  0  0  0  0  0  0  0  0  0
   -1.5000   -5.1962    0.0000 C   0  0  0  0  0  0  0  0  0  0  0  0
   -3.0000   -5.1962    0.0000 O   0  0  0  0  0  0  0  0  0  0  0  0
   -0.7500   -6.4952    0.0000 C   0  0  0  0  0  0  0  0  0  0  0  0
   -2.2500   -6.4952    0.0000 O   0  0  0  0  0  0  0  0  0  0  0  0
   -1.5000   -7.7942    0.0000 C   0  0  0  0  0  0  0  0  0  0  0  0
   -3.0000   -7.7942    0.0000 O   0  0  0  0  0  0  0  0  0  0  0  0
   -0.7500   -9.0933    0.0000 C   0  0  0  0  0  0  0  0  0  0  0  0
    0.7500   -9.0933    0.0000 C   0  0  0  0  0  0  0  0  0  0  0  0
    1.5000  -10.3923    0.0000 O   0  0  0  0  0  0  0  0  0  0  0  0
   -1.5000  -10.3923    0.0000 C   0  0  0  0  0  0  0  0  0  0  0  0
   -0.7500  -11.6913    0.0000 O   0  0  0  0  0  0  0  0  0  0  0  0
   -3.0000  -10.3923    0.0000 N   0  0  0  0  0  0  0  0  0  0  0  0
  2  3  1  0
  3  4  1  0
  5  3  1  6
  5  6  1  0
  6  7  1  1
  8  7  1  1
  8  9  1  0
  9 10  1  1
  9 11  1  0
 11 12  2  0
 12 13  1  0
 12 14  1  0
 14 15  2  0
 15 16  1  0
 16 17  1  0
 16 18  2  0
 18 19  1  0
 19 20  2  0
 19 21  1  0
 21 22  2  0
 22 23  1  0
 22 24  1  0
 24 25  1  6
 24 26  1  0
 26 27  2  0
 26 28  1  0
 28 29  2  0
 29 30  1  0
 28 31  1  0
 31 32  2  0
 31 33  1  0
 29  5  1  0
 24  6  1  0
 21  8  1  0
 18 11  1  0
M  END
$$$$
455284
     RDKit          2D

 33 35  0  0  0  0  0  0  0  0999 V2000
    4.0000    0.0000    0.0000 Cl  0  0  0  0  0  0  0  0  0  0  0  0
   -3.7500   -9.0933    0.0000 C   0  0  0  0  0  0  0  0  0  0  0  0
   -3.0000   -7.7942    0.0000 N   0  0  0  0  0  0  0  0  0  0  0  0
   -3.7500   -6.4952    0.0000 C   0  0  0  0  0  0  0  0  0  0  0  0
   -1.5000   -7.7942    0.0000 C   0  0  0  0  0  0  0  0  0  0  0  0
   -0.7500   -6.4952    0.0000 C   0  0  0  0  0  0  0  0  0  0  0  0
   -1.5000   -5.1962    0.0000 C   0  0  0  0  0  0  0  0  0  0  0  0
   -0.7500   -3.8971    0.0000 C   0  0  0  0  0  0  0  0  0  0  0  0
    0.7500   -3.8971    0.0000 C   0  0  0  0  0  0  0  0  0  0  0  0
    1.5000   -5.1962    0.0000 C   0  0  0  0  0  0  0  0  0  0  0  0
    3.0000   -5.1962    0.0000 O   0  0  0  0  0  0  0  0  0  0  0  0
    0.7500   -6.4952    0.0000 C   0  0  0  0  0  0  0  0  0  0  0  0
    2.2500   -6.4952    0.0000 O   0  0  0  0  0  0  0  0  0  0  0  0
    1.5000   -7.7942    0.0000 C   0  0  0  0  0  0  0  0  0  0  0  0
    3.0000   -7.7942    0.0000 O   0  0  0  0  0  0  0  0  0  0  0  0
    0.7500   -9.0933    0.0000 C   0  0  0  0  0  0  0  0  0  0  0  0
   -0.7500   -9.0933    0.0000 C   0  0  0  0  0  0  0  0  0  0  0  0
   -1.5000  -10.3923    0.0000 O   0  0  0  0  0  0  0  0  0  0  0  0
    1.5000  -10.3923    0.0000 C   0  0  0  0  0  0  0  0  0  0  0  0
    3.0000  -10.3923    0.0000 O   0  0  0  0  0  0  0  0  0  0  0  0
    0.7500  -11.6913    0.0000 N   0  0  0  0  0  0  0  0  0  0  0  0
    1.5000   -2.5981    0.0000 C   0  0  0  0  0  0  0  0  0  0  0  0
    3.0000   -2.5981    0.0000 O   0  0  0  0  0  0  0  0  0  0  0  0
    0.7500   -1.2990    0.0000 C   0  0  0  0  0  0  0  0  0  0  0  0
    1.5000    0.0000    0.0000 C   0  0  0  0  0  0  0  0  0  0  0  0
    3.0000    0.0000    0.0000 O   0  0  0  0  0  0  0  0  0  0  0  0
    0.7500    1.2990    0.0000 C   0  0  0  0  0  0  0  0  0  0  0  0
   -0.7500    1.2990    0.0000 C   0  0  0  0  0  0  0  0  0  0  0  0
   -1.5000    0.0000    0.0000 C   0  0  0  0  0  0  0  0  0  0  0  0
   -0.7500   -1.2990    0.0000 C   0  0  0  0  0  0  0  0  0  0  0  0
   -1.5000   -2.5981    0.0000 C   0  0  0  0  0  0  0  0  0  0  0  0
   -2.6491   -3.5623    0.0000 C   0  0  0  0  0  0  0  0  0  0  0  0
   -2.6491   -1.6339    0.0000 O   0  0  0  0  0  0  0  0  0  0  0  0
  2  3  1  0
  3  4  1  0
  5  3  1  1
  5  6  1  0
  6  7  1  6
  8  7  1  6
  8  9  1  0
  9 10  2  0
 10 11  1  0
 10 12  1  0
 12 13  1  1
 12 14  1  0
 14 15  2  0
 14 16  1  0
 16 17  2  0
 17 18  1  0
 16 19  1  0
 19 20  2  0
 19 21  1  0
  9 22  1  0
 22 23  2  0
 22 24  1  0
 24 25  2  0
 25 26  1  0
 25 27  1  0
 27 28  2  0
 28 29  1  0
 29 30  2  0
 30 31  1  0
 31 32  1  1
 31 33  1  0
 17  5  1  0
 12  6  1  0
 31  8  1  0
 30 24  1  0
M  END
$$$$
1418074
     RDKit          2D

 33 35  0  0  0  0  0  0  0  0999 V2000
    4.7500    0.0000    0.0000 Cl  0  0  0  0  0  0  0  0  0  0  0  0
    3.7500   -9.0933    0.0000 C   0  0  0  0  0  0  0  0  0  0  0  0
    3.0000   -7.7942    0.0000 N   0  0  0  0  0  0  0  0  0  0  0  0
    3.7500   -6.4952    0.0000 C   0  0  0  0  0  0  0  0  0  0  0  0
    1.5000   -7.7942    0.0000 C   0  0  0  0  0  0  0  0  0  0  0  0
    0.7500   -6.4952    0.0000 C   0  0  0  0  0  0  0  0  0  0  0  0
    1.5000   -5.1962    0.0000 C   0  0  0  0  0  0  0  0  0  0  0  0
    3.0000   -5.1962    0.0000 O   0  0  0  0  0  0  0  0  0  0  0  0
    0.7500   -3.8971    0.0000 C   0  0  0  0  0  0  0  0  0  0  0  0
    1.5000   -2.5981    0.0000 C   0  0  0  0  0  0  0  0  0  0  0  0
    3.0000   -2.5981    0.0000 C   0  0  0  0  0  0  0  0  0  0  0  0
    0.7500   -1.2990    0.0000 C   0  0  0  0  0  0  0  0  0  0  0  0
    1.5000    0.0000    0.0000 C   0  0  0  0  0  0  0  0  0  0  0  0
    0.7500    1.2990    0.0000 C   0  0  0  0  0  0  0  0  0  0  0  0
   -0.7500    1.2990    0.0000 C   0  0  0  0  0  0  0  0  0  0  0  0
   -1.5000    0.0000    0.0000 C   0  0  0  0  0  0  0  0  0  0  0  0
   -3.0000    0.0000    0.0000 O   0  0  0  0  0  0  0  0  0  0  0  0
   -0.7500   -1.2990    0.0000 C   0  0  0  0  0  0  0  0  0  0  0  0
   -1.5000   -2.5981    0.0000 C   0  0  0  0  0  0  0  0  0  0  0  0
   -3.0000   -2.5981    0.0000 O   0  0  0  0  0  0  0  0  0  0  0  0
   -0.7500   -3.8971    0.0000 C   0  0  0  0  0  0  0  0  0  0  0  0
   -1.5000   -5.1962    0.0000 C   0  0  0  0  0  0  0  0  0  0  0  0
   -3.0000   -5.1962    0.0000 O   0  0  0  0  0  0  0  0  0  0  0  0
   -0.7500   -6.4952    0.0000 C   0  0  0  0  0  0  0  0  0  0  0  0
   -2.2500   -6.4952    0.0000 O   0  0  0  0  0  0  0  0  0  0  0  0
   -1.5000   -7.7942    0.0000 C   0  0  0  0  0  0  0  0  0  0  0  0
   -3.0000   -7.7942    0.0000 O   0  0  0  0  0  0  0  0  0  0  0  0
   -0.7500   -9.0933    0.0000 C   0  0  0  0  0  0  0  0  0  0  0  0
    0.7500   -9.0933    0.0000 C   0  0  0  0  0  0  0  0  0  0  0  0
    1.5000  -10.3923    0.0000 O   0  0  0  0  0  0  0  0  0  0  0  0
   -1.5000  -10.3923    0.0000 C   0  0  0  0  0  0  0  0  0  0  0  0
   -0.7500  -11.6913    0.0000 O   0  0  0  0  0  0  0  0  0  0  0  0
   -3.0000  -10.3923    0.0000 N   0  0  0  0  0  0  0  0  0  0  0  0
  2  3  1  0
  3  4  1  0
  5  3  1  6
  6  5  1  1
  6  7  1  0
  7  8  1  6
  7  9  1  0
  9 10  1  1
 10 11  2  0
 10 12  1  0
 12 13  2  0
 13 14  1  0
 14 15  2  0
 15 16  1  0
 16 17  1  0
 16 18  2  0
 18 19  1  0
 19 20  2  0
 19 21  1  0
 21 22  2  0
 22 23  1  0
 22 24  1  0
 24 25  1  6
 24 26  1  0
 26 27  2  0
 26 28  1  0
 28 29  2  0
 29 30  1  0
 28 31  1  0
 31 32  2  0
 31 33  1  0
 29  5  1  0
 24  6  1  0
 21  9  1  0
 18 12  1  0
M  END
$$$$
1031364
     RDKit          2D

 34 36  0  0  0  0  0  0  0  0999 V2000
    4.0000    0.0000    0.0000 Cl  0  0  0  0  0  0  0  0  0  0  0  0
   -3.7500   -9.0933    0.0000 C   0  0  0  0  0  0  0  0  0  0  0  0
   -3.0000   -7.7942    0.0000 N   0  0  0  0  0  0  0  0  0  0  0  0
   -3.7500   -6.4952    0.0000 C   0  0  0  0  0  0  0  0  0  0  0  0
   -1.5000   -7.7942    0.0000 C   0  0  0  0  0  0  0  0  0  0  0  0
   -0.7500   -6.4952    0.0000 C   0  0  0  0  0  0  0  0  0  0  0  0
   -1.5000   -5.1962    0.0000 C   0  0  0  0  0  0  0  0  0  0  0  0
   -3.0000   -5.1962    0.0000 O   0  0  0  0  0  0  0  0  0  0  0  0
   -0.7500   -3.8971    0.0000 C   0  0  0  0  0  0  0  0  0  0  0  0
    0.7500   -3.8971    0.0000 C   0  0  0  0  0  0  0  0  0  0  0  0
    1.5000   -5.1962    0.0000 C   0  0  0  0  0  0  0  0  0  0  0  0
    3.0000   -5.1962    0.0000 O   0  0  0  0  0  0  0  0  0  0  0  0
    0.7500   -6.4952    0.0000 C   0  0  0  0  0  0  0  0  0  0  0  0
    2.2500   -6.4952    0.0000 O   0  0  0  0  0  0  0  0  0  0  0  0
    1.5000   -7.7942    0.0000 C   0  0  0  0  0  0  0  0  0  0  0  0
    3.0000   -7.7942    0.0000 O   0  0  0  0  0  0  0  0  0  0  0  0
    0.7500   -9.0933    0.0000 C   0  0  0  0  0  0  0  0  0  0  0  0
   -0.7500   -9.0933    0.0000 C   0  0  0  0  0  0  0  0  0  0  0  0
   -1.5000  -10.3923    0.0000 O   0  0  0  0  0  0  0  0  0  0  0  0
    1.5000  -10.3923    0.0000 C   0  0  0  0  0  0  0  0  0  0  0  0
    3.0000  -10.3923    0.0000 O   0  0  0  0  0  0  0  0  0  0  0  0
    0.7500  -11.6913    0.0000 N   0  0  0  0  0  0  0  0  0  0  0  0
    1.5000   -2.5981    0.0000 C   0  0  0  0  0  0  0  0  0  0  0  0
    3.0000   -2.5981    0.0000 O   0  0  0  0  0  0  0  0  0  0  0  0
    0.7500   -1.2990    0.0000 C   0  0  0  0  0  0  0  0  0  0  0  0
    1.5000    0.0000    0.0000 C   0  0  0  0  0  0  0  0  0  0  0  0
    3.0000    0.0000    0.0000 O   0  0  0  0  0  0  0  0  0  0  0  0
    0.7500    1.2990    0.0000 C   0  0  0  0  0  0  0  0  0  0  0  0
   -0.7500    1.2990    0.0000 C   0  0  0  0  0  0  0  0  0  0  0  0
   -1.5000    0.0000    0.0000 C   0  0  0  0  0  0  0  0  0  0  0  0
   -0.7500   -1.2990    0.0000 C   0  0  0  0  0  0  0  0  0  0  0  0
   -1.5000   -2.5981    0.0000 C   0  0  0  0  0  0  0  0  0  0  0  0
   -2.6491   -3.5623    0.0000 C   0  0  0  0  0  0  0  0  0  0  0  0
   -2.6491   -1.6339    0.0000 O   0  0  0  0  0  0  0  0  0  0  0  0
  2  3  1  0
  3  4  1  0
  5  3  1  1
  6  5  1  6
  6  7  1  0
  7  8  1  1
  7  9  1  0
  9 10  1  6
 10 11  2  0
 11 12  1  0
 11 13  1  0
 13 14  1  1
 13 15  1  0
 15 16  2  0
 15 17  1  0
 17 18  2  0
 18 19  1  0
 17 20  1  0
 20 21  2  0
 20 22  1  0
 10 23  1  0
 23 24  2  0
 23 25  1  0
 25 26  2  0
 26 27  1  0
 26 28  1  0
 28 29  2  0
 29 30  1  0
 30 31  2  0
 31 32  1  0
 32 33  1  1
 32 34  1  0
 18  5  1  0
 13  6  1  0
 32  9  1  0
 31 25  1  0
M  END
$$$$
675684
     RDKit          2D

 32 34  0  0  0  0  0  0  0  0999 V2000
    0.0000    4.8971    0.0000 Cl  0  0  0  0  0  0  0  0  0  0  0  0
    0.7500   -3.8971    0.0000 C   0  0  0  0  0  0  0  0  0  0  0  0
    1.5000   -2.5981    0.0000 N   0  0  0  0  0  0  0  0  0  0  0  0
    0.7500   -1.2990    0.0000 C   0  0  0  0  0  0  0  0  0  0  0  0
    1.5000    0.0000    0.0000 C   0  0  0  0  0  0  0  0  0  0  0  0
    0.7500    1.2990    0.0000 C   0  0  0  0  0  0  0  0  0  0  0  0
   -0.7500    1.2990    0.0000 C   0  0  0  0  0  0  0  0  0  0  0  0
   -1.7537    2.4138    0.0000 C   0  0  0  0  0  0  0  0  0  0  0  0
   -1.4418    3.8810    0.0000 C   0  0  0  0  0  0  0  0  0  0  0  0
   -3.1240    1.8037    0.0000 N   0  0  0  0  0  0  0  0  0  0  0  0
   -4.4231    2.5537    0.0000 C   0  0  0  0  0  0  0  0  0  0  0  0
   -2.9672    0.3119    0.0000 N   0  0  0  0  0  0  0  0  0  0  0  0
   -1.5000    0.0000    0.0000 C   0  0  0  0  0  0  0  0  0  0  0  0
   -0.7500   -1.2990    0.0000 C   0  0  0  0  0  0  0  0  0  0  0  0
    3.0000   -2.5981    0.0000 C   0  0  0  0  0  0  0  0  0  0  0  0
    3.7500   -3.8971    0.0000 C   0  0  0  0  0  0  0  0  0  0  0  0
    5.2500   -3.8971    0.0000 C   0  0  0  0  0  0  0  0  0  0  0  0
    6.0000   -2.5981    0.0000 N   0  0  0  0  0  0  0  0  0  0  0  0
    5.2500   -1.2990    0.0000 C   0  0  0  0  0  0  0  0  0  0  0  0
    6.0000   -0.0000    0.0000 N   0  0  0  0  0  0  0  0  0  0  0  0
    7.5000   -0.0000    0.0000 C   0  0  0  0  0  0  0  0  0  0  0  0
    8.2500   -1.2990    0.0000 C   0  0  0  0  0  0  0  0  0  0  0  0
    9.7500   -1.2990    0.0000 C   0  0  0  0  0  0  0  0  0  0  0  0
   10.5000   -0.0000    0.0000 C   0  0  0  0  0  0  0  0  0  0  0  0
   12.0000   -0.0000    0.0000 C   0  0  0  0  0  0  0  0  0  0  0  0
    9.7500    1.2990    0.0000 C   0  0  0  0  0  0  0  0  0  0  0  0
    8.2500    1.2990    0.0000 C   0  0  0  0  0  0  0  0  0  0  0  0
   10.5000    2.5981    0.0000 S   0  0  0  0  0  0  0  0  0  0  0  0
    9.2010    3.3481    0.0000 O   0  0  0  0  0  0  0  0  0  0  0  0
   11.7990    1.8481    0.0000 O   0  0  0  0  0  0  0  0  0  0  0  0
   11.2500    3.8971    0.0000 N   0  0  0  0  0  0  0  0  0  0  0  0
    3.7500   -1.2990    0.0000 N   0  0  0  0  0  0  0  0  0  0  0  0
  2  3  1  0
  3  4  1  0
  4  5  1  0
  5  6  2  0
  6  7  1  0
  7  8  2  0
  8  9  1  0
  8 10  1  0
 10 11  1  0
 10 12  1  0
 12 13  2  0
 13 14  1  0
  3 15  1  0
 15 16  2  0
 16 17  1  0
 17 18  2  0
 18 19  1  0
 19 20  1  0
 20 21  1  0
 21 22  2  0
 22 23  1  0
 23 24  2  0
 24 25  1  0
 24 26  1  0
 26 27  2  0
 26 28  1  0
 28 29  2  0
 28 30  2  0
 28 31  1  0
 19 32  2  0
 14  4  2  0
 13  7  1  0
 32 15  1  0
 27 21  1  0
M  END
$$$$
674376
     RDKit          2D

 13 12  0  0  0  0  0  0  0  0999 V2000
    0.0000    2.2990    0.0000 Cl  0  0  0  0  0  0  0  0  0  0  0  0
    5.2500   -1.2990    0.0000 C   0  0  0  0  0  0  0  0  0  0  0  0
    3.7500   -1.2990    0.0000 N   0  0  0  0  0  0  0  0  0  0  0  0
    3.0000   -2.5981    0.0000 C   0  0  0  0  0  0  0  0  0  0  0  0
    3.7500   -3.8971    0.0000 C   0  0  0  0  0  0  0  0  0  0  0  0
    4.5000   -5.1962    0.0000 C   0  0  0  0  0  0  0  0  0  0  0  0
    3.0000    0.0000    0.0000 C   0  0  0  0  0  0  0  0  0  0  0  0
    1.5000    0.0000    0.0000 C   0  0  0  0  0  0  0  0  0  0  0  0
    0.7500   -1.2990    0.0000 C   0  0  0  0  0  0  0  0  0  0  0  0
   -0.7500   -1.2990    0.0000 C   0  0  0  0  0  0  0  0  0  0  0  0
   -1.5000    0.0000    0.0000 C   0  0  0  0  0  0  0  0  0  0  0  0
   -0.7500    1.2990    0.0000 C   0  0  0  0  0  0  0  0  0  0  0  0
    0.7500    1.2990    0.0000 C   0  0  0  0  0  0  0  0  0  0  0  0
  2  3  1  0
  3  4  1  0
  4  5  1  0
  5  6  3  0
  3  7  1  0
  7  8  1  0
  8  9  2  0
  9 10  1  0
 10 11  2  0
 11 12  1  0
 12 13  2  0
 13  8  1  0
M  END
$$$$
674783
     RDKit          2D

 23 23  0  0  0  0  0  0  0  0999 V2000
    2.5000    0.0000    0.0000 Cl  0  0  0  0  0  0  0  0  0  0  0  0
   -5.2500   -3.8971    0.0000 C   0  0  0  0  0  0  0  0  0  0  0  0
   -3.7500   -3.8971    0.0000 N   0  0  0  0  0  0  0  0  0  0  0  0
   -3.0000   -5.1962    0.0000 C   0  0  0  0  0  0  0  0  0  0  0  0
   -3.7500   -6.4952    0.0000 C   0  0  0  0  0  0  0  0  0  0  0  0
   -3.0000   -7.7942    0.0000 C   0  0  0  0  0  0  0  0  0  0  0  0
   -3.7500   -9.0933    0.0000 C   0  0  0  0  0  0  0  0  0  0  0  0
   -4.5000  -10.3923    0.0000 C   0  0  0  0  0  0  0  0  0  0  0  0
   -5.2500  -11.6913    0.0000 C   0  0  0  0  0  0  0  0  0  0  0  0
   -3.9510  -12.4413    0.0000 C   0  0  0  0  0  0  0  0  0  0  0  0
   -6.5490  -10.9413    0.0000 C   0  0  0  0  0  0  0  0  0  0  0  0
   -6.0000  -12.9904    0.0000 C   0  0  0  0  0  0  0  0  0  0  0  0
   -3.0000   -2.5981    0.0000 C   0  0  0  0  0  0  0  0  0  0  0  0
   -1.5000   -2.5981    0.0000 C   0  0  0  0  0  0  0  0  0  0  0  0
   -0.7500   -3.8971    0.0000 C   0  0  0  0  0  0  0  0  0  0  0  0
    0.7500   -3.8971    0.0000 C   0  0  0  0  0  0  0  0  0  0  0  0
    1.5000   -2.5981    0.0000 C   0  0  0  0  0  0  0  0  0  0  0  0
    0.7500   -1.2990    0.0000 C   0  0  0  0  0  0  0  0  0  0  0  0
    1.5000    0.0000    0.0000 C   0  0  0  0  0  0  0  0  0  0  0  0
    0.7500    1.2990    0.0000 C   0  0  0  0  0  0  0  0  0  0  0  0
   -0.7500    1.2990    0.0000 C   0  0  0  0  0  0  0  0  0  0  0  0
   -1.5000    0.0000    0.0000 C   0  0  0  0  0  0  0  0  0  0  0  0
   -0.7500   -1.2990    0.0000 C   0  0  0  0  0  0  0  0  0  0  0  0
  2  3  1  0
  3  4  1  0
  4  5  1  0
  5  6  2  0
  6  7  1  0
  7  8  3  0
  8  9  1  0
  9 10  1  0
  9 11  1  0
  9 12  1  0
  3 13  1  0
 13 14  1  0
 14 15  2  0
 15 16  1  0
 16 17  2  0
 17 18  1  0
 18 19  2  0
 19 20  1  0
 20 21  2  0
 21 22  1  0
 22 23  2  0
 23 14  1  0
 23 18  1  0
M  END
$$$$
699431
     RDKit          2D

 24 26  0  0  0  0  0  0  0  0999 V2000
    0.0000    2.2990    0.0000 Cl  0  0  0  0  0  0  0  0  0  0  0  0
   -5.0099   -5.5279    0.0000 C   0  0  0  0  0  0  0  0  0  0  0  0
   -5.8051   -5.5834    0.0000 N   0  0  0  0  0  0  0  0  0  0  0  0
   -6.1170   -7.0506    0.0000 C   0  0  0  0  0  0  0  0  0  0  0  0
   -7.5436   -7.5142    0.0000 C   0  0  0  0  0  0  0  0  0  0  0  0
   -8.6583   -6.5105    0.0000 C   0  0  0  0  0  0  0  0  0  0  0  0
   -8.3464   -5.0433    0.0000 C   0  0  0  0  0  0  0  0  0  0  0  0
   -6.9199   -4.5797    0.0000 C   0  0  0  0  0  0  0  0  0  0  0  0
   -5.4933   -4.1162    0.0000 C   0  0  0  0  0  0  0  0  0  0  0  0
   -4.3786   -5.1199    0.0000 C   0  0  0  0  0  0  0  0  0  0  0  0
   -4.6904   -6.5871    0.0000 C   0  0  0  0  0  0  0  0  0  0  0  0
   -2.9520   -4.6564    0.0000 N   0  0  0  0  0  0  0  0  0  0  0  0
   -2.6401   -3.1891    0.0000 C   0  0  0  0  0  0  0  0  0  0  0  0
   -3.7548   -2.1855    0.0000 O   0  0  0  0  0  0  0  0  0  0  0  0
   -1.2135   -2.7256    0.0000 C   0  0  0  0  0  0  0  0  0  0  0  0
   -0.0000   -3.6073    0.0000 N   0  0  0  0  0  0  0  0  0  0  0  0
    1.2135   -2.7256    0.0000 N   0  0  0  0  0  0  0  0  0  0  0  0
    2.6401   -3.1891    0.0000 C   0  0  0  0  0  0  0  0  0  0  0  0
    0.7500   -1.2990    0.0000 C   0  0  0  0  0  0  0  0  0  0  0  0
    1.5000    0.0000    0.0000 C   0  0  0  0  0  0  0  0  0  0  0  0
    0.7500    1.2990    0.0000 C   0  0  0  0  0  0  0  0  0  0  0  0
   -0.7500    1.2990    0.0000 C   0  0  0  0  0  0  0  0  0  0  0  0
   -1.5000    0.0000    0.0000 C   0  0  0  0  0  0  0  0  0  0  0  0
   -0.7500   -1.2990    0.0000 C   0  0  0  0  0  0  0  0  0  0  0  0
  2  3  1  0
  3  4  1  0
  4  5  1  0
  5  6  1  0
  6  7  1  0
  7  8  1  0
  8  9  1  0
  9 10  1  0
 10 11  1  0
 10 12  1  0
 12 13  1  0
 13 14  2  0
 13 15  1  0
 15 16  2  0
 16 17  1  0
 17 18  1  0
 17 19  1  0
 19 20  2  0
 20 21  1  0
 21 22  2  0
 22 23  1  0
 23 24  2  0
  8  3  1  0
 11  4  1  0
 24 15  1  0
 24 19  1  0
M  END
$$$$
550917
     RDKit          2D

 23 25  0  0  0  0  0  0  0  0999 V2000
    0.0000    2.2990    0.0000 Cl  0  0  0  0  0  0  0  0  0  0  0  0
    7.5348   -1.1367    0.0000 C   0  0  0  0  0  0  0  0  0  0  0  0
    6.0724   -1.4704    0.0000 N   0  0  0  0  0  0  0  0  0  0  0  0
    5.6303   -2.9038    0.0000 C   0  0  0  0  0  0  0  0  0  0  0  0
    4.1679   -3.2376    0.0000 C   0  0  0  0  0  0  0  0  0  0  0  0
    3.1476   -2.1380    0.0000 C   0  0  0  0  0  0  0  0  0  0  0  0
    1.6852   -2.4718    0.0000 C   0  0  0  0  0  0  0  0  0  0  0  0
    0.7500   -1.2990    0.0000 C   0  0  0  0  0  0  0  0  0  0  0  0
    1.5000    0.0000    0.0000 C   0  0  0  0  0  0  0  0  0  0  0  0
    0.7500    1.2990    0.0000 C   0  0  0  0  0  0  0  0  0  0  0  0
   -0.7500    1.2990    0.0000 C   0  0  0  0  0  0  0  0  0  0  0  0
   -1.5000    0.0000    0.0000 C   0  0  0  0  0  0  0  0  0  0  0  0
   -0.7500   -1.2990    0.0000 C   0  0  0  0  0  0  0  0  0  0  0  0
   -1.6852   -2.4718    0.0000 C   0  0  0  0  0  0  0  0  0  0  0  0
   -1.3515   -3.9342    0.0000 C   0  0  0  0  0  0  0  0  0  0  0  0
    0.0000   -4.5850    0.0000 C   0  0  0  0  0  0  0  0  0  0  0  0
   -0.1121   -6.0808    0.0000 C   0  0  0  0  0  0  0  0  0  0  0  0
    1.1273   -6.9258    0.0000 C   0  0  0  0  0  0  0  0  0  0  0  0
    2.4787   -6.2750    0.0000 C   0  0  0  0  0  0  0  0  0  0  0  0
    2.5908   -4.7792    0.0000 C   0  0  0  0  0  0  0  0  0  0  0  0
    1.3515   -3.9342    0.0000 C   0  0  0  0  0  0  0  0  0  0  0  0
    3.5898   -0.7046    0.0000 C   0  0  0  0  0  0  0  0  0  0  0  0
    5.0522   -0.3709    0.0000 C   0  0  0  0  0  0  0  0  0  0  0  0
  2  3  1  0
  3  4  1  0
  4  5  1  0
  5  6  1  0
  6  7  2  0
  7  8  1  0
  8  9  2  0
  9 10  1  0
 10 11  2  0
 11 12  1  0
 12 13  2  0
 13 14  1  0
 14 15  2  0
 15 16  1  0
 16 17  2  0
 17 18  1  0
 18 19  2  0
 19 20  1  0
 20 21  2  0
  6 22  1  0
 22 23  1  0
 23  3  1  0
 21  7  1  0
 13  8  1  0
 21 16  1  0
M  END
$$$$
447448
     RDKit          2D

 22 23  0  0  0  0  0  0  0  0999 V2000
    0.0000    6.1962    0.0000 Cl  0  0  0  0  0  0  0  0  0  0  0  0
    3.0000    0.0000    0.0000 C   0  0  0  0  0  0  0  0  0  0  0  0
    1.5000    0.0000    0.0000 N   0  0  0  0  0  0  0  0  0  0  0  0
    0.7500   -1.2990    0.0000 C   0  0  0  0  0  0  0  0  0  0  0  0
   -0.7500   -1.2990    0.0000 C   0  0  0  0  0  0  0  0  0  0  0  0
   -1.5000    0.0000    0.0000 C   0  0  0  0  0  0  0  0  0  0  0  0
   -0.7500    1.2990    0.0000 C   0  0  0  0  0  0  0  0  0  0  0  0
    0.7500    1.2990    0.0000 C   0  0  0  0  0  0  0  0  0  0  0  0
   -3.0000    0.0000    0.0000 O   0  0  0  0  0  0  0  0  0  0  0  0
   -3.7500    1.2990    0.0000 C   0  0  0  0  0  0  0  0  0  0  0  0
   -5.2500    1.2990    0.0000 C   0  0  0  0  0  0  0  0  0  0  0  0
   -6.0000    2.5981    0.0000 C   0  0  0  0  0  0  0  0  0  0  0  0
   -7.5000    2.5981    0.0000 C   0  0  0  0  0  0  0  0  0  0  0  0
   -8.2500    1.2990    0.0000 C   0  0  0  0  0  0  0  0  0  0  0  0
   -7.5000    0.0000    0.0000 C   0  0  0  0  0  0  0  0  0  0  0  0
   -6.0000    0.0000    0.0000 C   0  0  0  0  0  0  0  0  0  0  0  0
   -3.0000    2.5981    0.0000 C   0  0  0  0  0  0  0  0  0  0  0  0
   -1.5000    2.5981    0.0000 C   0  0  0  0  0  0  0  0  0  0  0  0
   -0.7500    3.8971    0.0000 C   0  0  0  0  0  0  0  0  0  0  0  0
   -1.5000    5.1962    0.0000 C   0  0  0  0  0  0  0  0  0  0  0  0
   -3.0000    5.1962    0.0000 C   0  0  0  0  0  0  0  0  0  0  0  0
   -3.7500    3.8971    0.0000 C   0  0  0  0  0  0  0  0  0  0  0  0
  2  3  1  0
  3  4  1  0
  4  5  1  0
  5  6  1  0
  6  7  1  0
  7  8  1  0
  6  9  1  0
  9 10  1  0
 10 11  1  0
 11 12  2  0
 12 13  1  0
 13 14  2  0
 14 15  1  0
 15 16  2  0
 10 17  1  0
 17 18  2  0
 18 19  1  0
 19 20  2  0
 20 21  1  0
 21 22  2  0
  8  3  1  0
 16 11  1  0
 22 17  1  0
M  END
$$$$
674483
     RDKit          2D

 22 24  0  0  0  0  0  0  0  0999 V2000
    6.5537    0.0000    0.0000 Cl  0  0  0  0  0  0  0  0  0  0  0  0
    4.0978   -7.7629    0.0000 C   0  0  0  0  0  0  0  0  0  0  0  0
    4.2546   -6.2711    0.0000 N   0  0  0  0  0  0  0  0  0  0  0  0
    5.5537   -5.5211    0.0000 C   0  0  0  0  0  0  0  0  0  0  0  0
    5.2418   -4.0539    0.0000 C   0  0  0  0  0  0  0  0  0  0  0  0
    3.7500   -3.8971    0.0000 C   0  0  0  0  0  0  0  0  0  0  0  0
    3.0000   -2.5981    0.0000 C   0  0  0  0  0  0  0  0  0  0  0  0
    1.5000   -2.5981    0.0000 N   0  0  0  0  0  0  0  0  0  0  0  0
    0.7500   -1.2990    0.0000 C   0  0  0  0  0  0  0  0  0  0  0  0
    1.5000    0.0000    0.0000 C   0  0  0  0  0  0  0  0  0  0  0  0
    0.7500    1.2990    0.0000 C   0  0  0  0  0  0  0  0  0  0  0  0
   -0.7500    1.2990    0.0000 C   0  0  0  0  0  0  0  0  0  0  0  0
   -1.5000    0.0000    0.0000 C   0  0  0  0  0  0  0  0  0  0  0  0
   -0.7500   -1.2990    0.0000 C   0  0  0  0  0  0  0  0  0  0  0  0
   -1.5000   -2.5981    0.0000 S   0  0  0  0  0  0  0  0  0  0  0  0
   -0.7500   -3.8971    0.0000 C   0  0  0  0  0  0  0  0  0  0  0  0
   -1.5000   -5.1962    0.0000 C   0  0  0  0  0  0  0  0  0  0  0  0
   -0.7500   -6.4952    0.0000 C   0  0  0  0  0  0  0  0  0  0  0  0
    0.7500   -6.4952    0.0000 C   0  0  0  0  0  0  0  0  0  0  0  0
    1.5000   -5.1962    0.0000 C   0  0  0  0  0  0  0  0  0  0  0  0
    0.7500   -3.8971    0.0000 C   0  0  0  0  0  0  0  0  0  0  0  0
    3.1399   -5.2674    0.0000 C   0  0  0  0  0  0  0  0  0  0  0  0
  2  3  1  0
  3  4  1  0
  4  5  1  0
  5  6  1  0
  6  7  1  0
  7  8  1  0
  8  9  1  0
  9 10  2  0
 10 11  1  0
 11 12  2  0
 12 13  1  0
 13 14  2  0
 14 15  1  0
 15 16  1  0
 16 17  2  0
 17 18  1  0
 18 19  2  0
 19 20  1  0
 20 21  2  0
  6 22  1  0
 22  3  1  0
 21  8  1  0
 14  9  1  0
 21 16  1  0
M  END
$$$$
674842
     RDKit          2D

 26 27  0  0  0  0  0  0  0  0999 V2000
    7.7500    0.0000    0.0000 Cl  0  0  0  0  0  0  0  0  0  0  0  0
    3.0000    0.0000    0.0000 C   0  0  0  0  0  0  0  0  0  0  0  0
    1.5000    0.0000    0.0000 N   0  0  0  0  0  0  0  0  0  0  0  0
    0.7500   -1.2990    0.0000 C   0  0  0  0  0  0  0  0  0  0  0  0
   -0.7500   -1.2990    0.0000 C   0  0  0  0  0  0  0  0  0  0  0  0
   -1.5000    0.0000    0.0000 C   0  0  0  0  0  0  0  0  0  0  0  0
   -0.7500    1.2990    0.0000 N   0  0  0  0  0  0  0  0  0  0  0  0
    0.7500    1.2990    0.0000 C   0  0  0  0  0  0  0  0  0  0  0  0
    1.5000    2.5981    0.0000 C   0  0  0  0  0  0  0  0  0  0  0  0
    3.0000    2.5981    0.0000 O   0  0  0  0  0  0  0  0  0  0  0  0
    3.7500    3.8971    0.0000 C   0  0  0  0  0  0  0  0  0  0  0  0
    3.0000    5.1962    0.0000 O   0  0  0  0  0  0  0  0  0  0  0  0
    5.2500    3.8971    0.0000 C   0  0  0  0  0  0  0  0  0  0  0  0
    6.7500    3.8971    0.0000 O   0  0  0  0  0  0  0  0  0  0  0  0
    5.2500    2.3971    0.0000 C   0  0  0  0  0  0  0  0  0  0  0  0
    3.9510    1.6471    0.0000 C   0  0  0  0  0  0  0  0  0  0  0  0
    3.9510    0.1471    0.0000 C   0  0  0  0  0  0  0  0  0  0  0  0
    5.2500   -0.6029    0.0000 C   0  0  0  0  0  0  0  0  0  0  0  0
    6.5490    0.1471    0.0000 C   0  0  0  0  0  0  0  0  0  0  0  0
    6.5490    1.6471    0.0000 C   0  0  0  0  0  0  0  0  0  0  0  0
    5.2500    5.3971    0.0000 C   0  0  0  0  0  0  0  0  0  0  0  0
    6.5490    6.1471    0.0000 C   0  0  0  0  0  0  0  0  0  0  0  0
    6.5490    7.6471    0.0000 C   0  0  0  0  0  0  0  0  0  0  0  0
    5.2500    8.3971    0.0000 C   0  0  0  0  0  0  0  0  0  0  0  0
    3.9510    7.6471    0.0000 C   0  0  0  0  0  0  0  0  0  0  0  0
    3.9510    6.1471    0.0000 C   0  0  0  0  0  0  0  0  0  0  0  0
  2  3  1  0
  3  4  1  0
  4  5  1  0
  5  6  1  0
  6  7  1  0
  7  8  2  0
  8  9  1  0
  9 10  1  0
 10 11  1  0
 11 12  2  0
 11 13  1  0
 13 14  1  0
 13 15  1  0
 15 16  1  0
 16 17  1  0
 17 18  1  0
 18 19  1  0
 19 20  1  0
 13 21  1  0
 21 22  2  0
 22 23  1  0
 23 24  2  0
 24 25  1  0
 25 26  2  0
  8  3  1  0
 20 15  1  0
 26 21  1  0
M  END
$$$$
675011
     RDKit          2D

 24 26  0  0  0  0  0  0  0  0999 V2000
    7.0424    0.0000    0.0000 Cl  0  0  0  0  0  0  0  0  0  0  0  0
    6.0424   -7.6751    0.0000 C   0  0  0  0  0  0  0  0  0  0  0  0
    4.8697   -6.7399    0.0000 N   0  0  0  0  0  0  0  0  0  0  0  0
    3.4734   -7.2879    0.0000 C   0  0  0  0  0  0  0  0  0  0  0  0
    2.3006   -6.3527    0.0000 C   0  0  0  0  0  0  0  0  0  0  0  0
    2.5242   -4.8694    0.0000 N   0  0  0  0  0  0  0  0  0  0  0  0
    3.9205   -4.3214    0.0000 C   0  0  0  0  0  0  0  0  0  0  0  0
    5.0933   -5.2566    0.0000 C   0  0  0  0  0  0  0  0  0  0  0  0
    1.3515   -3.9342    0.0000 C   0  0  0  0  0  0  0  0  0  0  0  0
    1.6852   -2.4718    0.0000 N   0  0  0  0  0  0  0  0  0  0  0  0
    0.7500   -1.2990    0.0000 C   0  0  0  0  0  0  0  0  0  0  0  0
    1.5000    0.0000    0.0000 C   0  0  0  0  0  0  0  0  0  0  0  0
    0.7500    1.2990    0.0000 C   0  0  0  0  0  0  0  0  0  0  0  0
   -0.7500    1.2990    0.0000 C   0  0  0  0  0  0  0  0  0  0  0  0
   -1.5000    0.0000    0.0000 C   0  0  0  0  0  0  0  0  0  0  0  0
   -0.7500   -1.2990    0.0000 C   0  0  0  0  0  0  0  0  0  0  0  0
   -1.6852   -2.4718    0.0000 O   0  0  0  0  0  0  0  0  0  0  0  0
   -1.3515   -3.9342    0.0000 C   0  0  0  0  0  0  0  0  0  0  0  0
   -2.5908   -4.7792    0.0000 C   0  0  0  0  0  0  0  0  0  0  0  0
   -2.4787   -6.2750    0.0000 C   0  0  0  0  0  0  0  0  0  0  0  0
   -1.1273   -6.9258    0.0000 C   0  0  0  0  0  0  0  0  0  0  0  0
   -1.0152   -8.4216    0.0000 Cl  0  0  0  0  0  0  0  0  0  0  0  0
    0.1121   -6.0808    0.0000 C   0  0  0  0  0  0  0  0  0  0  0  0
    0.0000   -4.5850    0.0000 C   0  0  0  0  0  0  0  0  0  0  0  0
  2  3  1  0
  3  4  1  0
  4  5  1  0
  5  6  1  0
  6  7  1  0
  7  8  1  0
  6  9  1  0
  9 10  2  0
 10 11  1  0
 11 12  2  0
 12 13  1  0
 13 14  2  0
 14 15  1  0
 15 16  2  0
 16 17  1  0
 17 18  1  0
 18 19  2  0
 19 20  1  0
 20 21  2  0
 21 22  1  0
 21 23  1  0
 23 24  2  0
  8  3  1  0
 24  9  1  0
 16 11  1  0
 24 18  1  0
M  END
$$$$
1377978
     RDKit          2D

 40 43  0  0  0  0  0  0  0  0999 V2000
    0.0000    6.3039    0.0000 Cl  0  0  0  0  0  0  0  0  0  0  0  0
  -19.0026    1.0556    0.0000 C   0  0  0  0  0  0  0  0  0  0  0  0
  -17.5761    1.5191    0.0000 N   0  0  0  0  0  0  0  0  0  0  0  0
  -16.4613    0.5154    0.0000 C   0  0  0  0  0  0  0  0  0  0  0  0
  -15.0348    0.9789    0.0000 C   0  0  0  0  0  0  0  0  0  0  0  0
  -14.7229    2.4461    0.0000 N   0  0  0  0  0  0  0  0  0  0  0  0
  -13.2963    2.9097    0.0000 C   0  0  0  0  0  0  0  0  0  0  0  0
  -12.1816    1.9060    0.0000 C   0  0  0  0  0  0  0  0  0  0  0  0
  -12.4935    0.4388    0.0000 C   0  0  0  0  0  0  0  0  0  0  0  0
  -11.3787   -0.5649    0.0000 C   0  0  0  0  0  0  0  0  0  0  0  0
   -9.9521   -0.1014    0.0000 C   0  0  0  0  0  0  0  0  0  0  0  0
   -8.8374   -1.1051    0.0000 N   0  0  0  0  0  0  0  0  0  0  0  0
   -9.1493   -2.5723    0.0000 C   0  0  0  0  0  0  0  0  0  0  0  0
  -10.5759   -3.0359    0.0000 O   0  0  0  0  0  0  0  0  0  0  0  0
   -8.0346   -3.5760    0.0000 C   0  0  0  0  0  0  0  0  0  0  0  0
   -8.3464   -5.0433    0.0000 C   0  0  0  0  0  0  0  0  0  0  0  0
   -7.2317   -6.0469    0.0000 C   0  0  0  0  0  0  0  0  0  0  0  0
   -5.8051   -5.5834    0.0000 C   0  0  0  0  0  0  0  0  0  0  0  0
   -4.6904   -6.5871    0.0000 C   0  0  0  0  0  0  0  0  0  0  0  0
   -5.4933   -4.1162    0.0000 C   0  0  0  0  0  0  0  0  0  0  0  0
   -6.6080   -3.1125    0.0000 C   0  0  0  0  0  0  0  0  0  0  0  0
   -4.0667   -3.6527    0.0000 C   0  0  0  0  0  0  0  0  0  0  0  0
   -2.6401   -3.1891    0.0000 C   0  0  0  0  0  0  0  0  0  0  0  0
   -1.2135   -2.7256    0.0000 C   0  0  0  0  0  0  0  0  0  0  0  0
   -0.0000   -3.6073    0.0000 C   0  0  0  0  0  0  0  0  0  0  0  0
    1.2135   -2.7256    0.0000 N   0  0  0  0  0  0  0  0  0  0  0  0
    0.7500   -1.2990    0.0000 C   0  0  0  0  0  0  0  0  0  0  0  0
    1.5000    0.0000    0.0000 C   0  0  0  0  0  0  0  0  0  0  0  0
    0.7500    1.2990    0.0000 C   0  0  0  0  0  0  0  0  0  0  0  0
   -0.7500    1.2990    0.0000 C   0  0  0  0  0  0  0  0  0  0  0  0
   -1.5000    0.0000    0.0000 N   0  0  0  0  0  0  0  0  0  0  0  0
   -0.7500   -1.2990    0.0000 N   0  0  0  0  0  0  0  0  0  0  0  0
   -9.6403    1.3658    0.0000 C   0  0  0  0  0  0  0  0  0  0  0  0
  -10.7550    2.3695    0.0000 C   0  0  0  0  0  0  0  0  0  0  0  0
  -10.4431    3.8367    0.0000 C   0  0  0  0  0  0  0  0  0  0  0  0
  -10.1313    5.3039    0.0000 F   0  0  0  0  0  0  0  0  0  0  0  0
   -8.9759    3.5249    0.0000 F   0  0  0  0  0  0  0  0  0  0  0  0
  -11.9104    4.1486    0.0000 F   0  0  0  0  0  0  0  0  0  0  0  0
  -15.8376    3.4498    0.0000 C   0  0  0  0  0  0  0  0  0  0  0  0
  -17.2642    2.9863    0.0000 C   0  0  0  0  0  0  0  0  0  0  0  0
  2  3  1  0
  3  4  1  0
  4  5  1  0
  5  6  1  0
  6  7  1  0
  7  8  1  0
  8  9  2  0
  9 10  1  0
 10 11  2  0
 11 12  1  0
 12 13  1  0
 13 14  2  0
 13 15  1  0
 15 16  2  0
 16 17  1  0
 17 18  2  0
 18 19  1  0
 18 20  1  0
 20 21  2  0
 20 22  1  0
 22 23  3  0
 23 24  1  0
 24 25  2  0
 25 26  1  0
 26 27  2  0
 27 28  1  0
 28 29  2  0
 29 30  1  0
 30 31  2  0
 31 32  1  0
 11 33  1  0
 33 34  2  0
 34 35  1  0
 35 36  1  0
 35 37  1  0
 35 38  1  0
  6 39  1  0
 39 40  1  0
 40  3  1  0
 34  8  1  0
 21 15  1  0
 32 24  1  0
 32 27  1  0
M  END
$$$$
549698
     RDKit          2D

 29 31  0  0  0  0  0  0  0  0999 V2000
    9.2500    0.0000    0.0000 Cl  0  0  0  0  0  0  0  0  0  0  0  0
    8.2500   -9.0933    0.0000 C   0  0  0  0  0  0  0  0  0  0  0  0
    7.5000   -7.7942    0.0000 N   0  0  0  0  0  0  0  0  0  0  0  0
    6.0000   -7.7942    0.0000 C   0  0  0  0  0  0  0  0  0  0  0  0
    5.2500   -6.4952    0.0000 C   0  0  0  0  0  0  0  0  0  0  0  0
    6.0000   -5.1962    0.0000 N   0  0  0  0  0  0  0  0  0  0  0  0
    5.2500   -3.8971    0.0000 C   0  0  0  0  0  0  0  0  0  0  0  0
    3.7500   -3.8971    0.0000 C   0  0  0  0  0  0  0  0  0  0  0  0
    3.0000   -2.5981    0.0000 C   0  0  0  0  0  0  0  0  0  0  0  0
    1.5000   -2.5981    0.0000 N   0  0  0  0  0  0  0  0  0  0  0  0
    0.7500   -1.2990    0.0000 C   0  0  0  0  0  0  0  0  0  0  0  0
    1.5000    0.0000    0.0000 C   0  0  0  0  0  0  0  0  0  0  0  0
    0.7500    1.2990    0.0000 C   0  0  0  0  0  0  0  0  0  0  0  0
   -0.7500    1.2990    0.0000 C   0  0  0  0  0  0  0  0  0  0  0  0
   -1.5000    0.0000    0.0000 C   0  0  0  0  0  0  0  0  0  0  0  0
   -0.7500   -1.2990    0.0000 C   0  0  0  0  0  0  0  0  0  0  0  0
   -1.5000   -2.5981    0.0000 S   0  0  0  0  0  0  0  0  0  0  0  0
   -0.7500   -3.8971    0.0000 C   0  0  0  0  0  0  0  0  0  0  0  0
   -1.5000   -5.1962    0.0000 C   0  0  0  0  0  0  0  0  0  0  0  0
   -0.7500   -6.4952    0.0000 C   0  0  0  0  0  0  0  0  0  0  0  0
    0.7500   -6.4952    0.0000 C   0  0  0  0  0  0  0  0  0  0  0  0
    1.5000   -5.1962    0.0000 C   0  0  0  0  0  0  0  0  0  0  0  0
    0.7500   -3.8971    0.0000 C   0  0  0  0  0  0  0  0  0  0  0  0
    1.5000   -7.7942    0.0000 C   0  0  0  0  0  0  0  0  0  0  0  0
    2.2500   -9.0933    0.0000 F   0  0  0  0  0  0  0  0  0  0  0  0
    0.2010   -8.5442    0.0000 F   0  0  0  0  0  0  0  0  0  0  0  0
    2.7990   -7.0442    0.0000 F   0  0  0  0  0  0  0  0  0  0  0  0
    7.5000   -5.1962    0.0000 C   0  0  0  0  0  0  0  0  0  0  0  0
    8.2500   -6.4952    0.0000 C   0  0  0  0  0  0  0  0  0  0  0  0
  2  3  1  0
  3  4  1  0
  4  5  1  0
  5  6  1  0
  6  7  1  0
  7  8  1  0
  8  9  1  0
  9 10  1  0
 10 11  1  0
 11 12  2  0
 12 13  1  0
 13 14  2  0
 14 15  1  0
 15 16  2  0
 16 17  1  0
 17 18  1  0
 18 19  2  0
 19 20  1  0
 20 21  2  0
 21 22  1  0
 22 23  2  0
 21 24  1  0
 24 25  1  0
 24 26  1  0
 24 27  1  0
  6 28  1  0
 28 29  1  0
 29  3  1  0
 23 10  1  0
 16 11  1  0
 23 18  1  0
M  END
$$$$
699406
     RDKit          2D

 22 25  0  0  0  0  0  0  0  0999 V2000
    0.0000    3.5981    0.0000 Cl  0  0  0  0  0  0  0  0  0  0  0  0
    3.0000    0.0000    0.0000 C   0  0  0  0  0  0  0  0  0  0  0  0
    0.8000   -0.0000    0.0000 N   0  0  0  0  0  0  0  0  0  0  0  0
    0.4000   -0.6928    0.0000 C   0  0  0  0  0  0  0  0  0  0  0  0
   -0.4000   -0.6928    0.0000 C   0  0  0  0  0  0  0  0  0  0  0  0
   -1.5000    0.0000    0.0000 C   0  0  0  0  0  0  0  0  0  0  0  0
   -0.7500    1.2990    0.0000 C   0  0  0  0  0  0  0  0  0  0  0  0
   -1.5000    2.5981    0.0000 C   0  0  0  0  0  0  0  0  0  0  0  0
   -3.0000    2.5981    0.0000 C   0  0  0  0  0  0  0  0  0  0  0  0
   -3.7500    1.2990    0.0000 C   0  0  0  0  0  0  0  0  0  0  0  0
   -5.2500    1.2990    0.0000 O   0  0  0  0  0  0  0  0  0  0  0  0
   -3.0000    0.0000    0.0000 C   0  0  0  0  0  0  0  0  0  0  0  0
   -3.4635   -1.4266    0.0000 O   0  0  0  0  0  0  0  0  0  0  0  0
   -2.2500   -2.3083    0.0000 C   0  0  0  0  0  0  0  0  0  0  0  0
   -2.0932   -3.8000    0.0000 C   0  0  0  0  0  0  0  0  0  0  0  0
   -3.3067   -4.6817    0.0000 O   0  0  0  0  0  0  0  0  0  0  0  0
   -0.7229   -4.4102    0.0000 C   0  0  0  0  0  0  0  0  0  0  0  0
    0.4906   -3.5285    0.0000 C   0  0  0  0  0  0  0  0  0  0  0  0
    0.3338   -2.0367    0.0000 C   0  0  0  0  0  0  0  0  0  0  0  0
   -0.1550    0.1028    0.0000 C   0  0  0  0  0  0  0  0  0  0  0  0
    0.7500    1.2990    0.0000 C   0  0  0  0  0  0  0  0  0  0  0  0
   -1.0365   -1.4266    0.0000 C   0  0  0  0  0  0  0  0  0  0  0  0
  2  3  1  0
  3  4  1  0
  4  5  1  0
  6  5  1  6
  6  7  1  0
  7  8  1  1
  8  9  1  0
  9 10  1  0
 10 11  2  0
 10 12  1  0
 12 13  1  1
 13 14  1  0
 14 15  2  0
 15 16  1  0
 15 17  1  0
 17 18  2  0
 18 19  1  0
 19 20  1  0
 21 20  1  1
 19 22  2  0
 21  3  1  0
 12  6  1  0
 22  6  1  0
 21  7  1  0
 22 14  1  0
M  END
$$$$
674745
     RDKit          2D

 23 26  0  0  0  0  0  0  0  0999 V2000
    0.0000    3.5981    0.0000 Cl  0  0  0  0  0  0  0  0  0  0  0  0
    3.0000    0.0000    0.0000 C   0  0  0  0  0  0  0  0  0  0  0  0
    0.8000   -0.0000    0.0000 N   0  0  0  0  0  0  0  0  0  0  0  0
    0.4000   -0.6928    0.0000 C   0  0  0  0  0  0  0  0  0  0  0  0
   -0.4000   -0.6928    0.0000 C   0  0  0  0  0  0  0  0  0  0  0  0
   -1.5000    0.0000    0.0000 C   0  0  0  0  0  0  0  0  0  0  0  0
   -3.0000    0.0000    0.0000 C   0  0  0  0  0  0  0  0  0  0  0  0
   -3.4635   -1.4266    0.0000 O   0  0  0  0  0  0  0  0  0  0  0  0
   -2.2500   -2.3083    0.0000 C   0  0  0  0  0  0  0  0  0  0  0  0
   -2.0932   -3.8000    0.0000 C   0  0  0  0  0  0  0  0  0  0  0  0
   -3.3067   -4.6817    0.0000 O   0  0  0  0  0  0  0  0  0  0  0  0
   -0.7229   -4.4102    0.0000 C   0  0  0  0  0  0  0  0  0  0  0  0
    0.4906   -3.5285    0.0000 C   0  0  0  0  0  0  0  0  0  0  0  0
    0.3338   -2.0367    0.0000 C   0  0  0  0  0  0  0  0  0  0  0  0
   -0.1550    0.1028    0.0000 C   0  0  0  0  0  0  0  0  0  0  0  0
    0.7500    1.2990    0.0000 C   0  0  0  0  0  0  0  0  0  0  0  0
   -0.7500    1.2990    0.0000 C   0  0  0  0  0  0  0  0  0  0  0  0
    0.0000    2.5981    0.0000 O   0  0  0  0  0  0  0  0  0  0  0  0
   -1.5000    2.5981    0.0000 C   0  0  0  0  0  0  0  0  0  0  0  0
   -3.0000    2.5981    0.0000 C   0  0  0  0  0  0  0  0  0  0  0  0
   -3.7500    1.2990    0.0000 C   0  0  0  0  0  0  0  0  0  0  0  0
   -5.2500    1.2990    0.0000 O   0  0  0  0  0  0  0  0  0  0  0  0
   -1.0365   -1.4266    0.0000 C   0  0  0  0  0  0  0  0  0  0  0  0
  2  3  1  0
  3  4  1  0
  4  5  1  0
  6  5  1  6
  6  7  1  0
  7  8  1  1
  8  9  1  0
  9 10  2  0
 10 11  1  0
 10 12  1  0
 12 13  2  0
 13 14  1  0
 14 15  1  0
 16 15  1  1
 16 17  1  0
 17 18  1  6
 17 19  1  0
 19 20  1  0
 20 21  1  0
 21 22  2  0
 14 23  2  0
 16  3  1  0
 17  6  1  0
 23  6  1  0
 21  7  1  0
 23  9  1  0
M  END
$$$$
1382812
     RDKit          2D

 22 21  0  0  0  0  0  0  0  0999 V2000
    0.0000    5.0051    0.0000 Cl  0  0  0  0  0  0  0  0  0  0  0  0
    8.0260   -6.4952    0.0000 C   0  0  0  0  0  0  0  0  0  0  0  0
    7.2760   -5.1962    0.0000 N   0  0  0  0  0  0  0  0  0  0  0  0
    8.0260   -3.8971    0.0000 C   0  0  0  0  0  0  0  0  0  0  0  0
    9.5260   -3.8971    0.0000 C   0  0  0  0  0  0  0  0  0  0  0  0
   10.2760   -5.1962    0.0000 N   0  0  0  0  0  4  0  0  0  0  0  0
    9.5260   -6.4952    0.0000 O   0  0  0  0  0  0  0  0  0  0  0  0
   11.7760   -5.1962    0.0000 O   0  0  0  0  0  1  0  0  0  0  0  0
    7.2760   -2.5981    0.0000 N   0  0  0  0  0  0  0  0  0  0  0  0
    5.7760   -2.5981    0.0000 C   0  0  0  0  0  0  0  0  0  0  0  0
    5.0260   -1.2990    0.0000 C   0  0  0  0  0  0  0  0  0  0  0  0
    3.5260   -1.2990    0.0000 S   0  0  0  0  0  0  0  0  0  0  0  0
    2.7760    0.0000    0.0000 C   0  0  0  0  0  0  0  0  0  0  0  0
    1.2760    0.0000    0.0000 C   0  0  0  0  0  0  0  0  0  0  0  0
    0.3943    1.2135    0.0000 O   0  0  0  0  0  0  0  0  0  0  0  0
   -1.0323    0.7500    0.0000 C   0  0  0  0  0  0  0  0  0  0  0  0
   -2.2458    1.6317    0.0000 C   0  0  0  0  0  0  0  0  0  0  0  0
   -2.0890    3.1235    0.0000 N   0  0  0  0  0  0  0  0  0  0  0  0
   -3.3025    4.0051    0.0000 C   0  0  0  0  0  0  0  0  0  0  0  0
   -0.7187    3.7336    0.0000 C   0  0  0  0  0  0  0  0  0  0  0  0
   -1.0323   -0.7500    0.0000 C   0  0  0  0  0  0  0  0  0  0  0  0
    0.3943   -1.2135    0.0000 C   0  0  0  0  0  0  0  0  0  0  0  0
  2  3  1  0
  3  4  1  0
  4  5  2  3
  5  6  1  0
  6  7  2  0
  6  8  1  0
  4  9  1  0
  9 10  1  0
 10 11  1  0
 11 12  1  0
 12 13  1  0
 13 14  1  0
 14 15  1  0
 15 16  1  0
 16 17  1  0
 17 18  1  0
 18 19  1  0
 18 20  1  0
 16 21  2  0
 21 22  1  0
 22 14  2  0
M  CHG  2   6   1   8  -1
M  END
$$$$
699433
     RDKit          2D

 13 13  0  0  0  0  0  0  0  0999 V2000
    2.2760    0.0000    0.0000 Cl  0  0  0  0  0  0  0  0  0  0  0  0
   -2.3313    3.9271    0.0000 C   0  0  0  0  0  0  0  0  0  0  0  0
   -2.3313    2.4271    0.0000 N   0  0  0  0  0  0  0  0  0  0  0  0
   -1.0323    1.6771    0.0000 C   0  0  0  0  0  0  0  0  0  0  0  0
   -0.4222    3.0474    0.0000 C   0  0  0  0  0  0  0  0  0  0  0  0
    0.3943    1.2135    0.0000 C   0  0  0  0  0  0  0  0  0  0  0  0
    1.2760    0.0000    0.0000 C   0  0  0  0  0  0  0  0  0  0  0  0
    0.3943   -1.2135    0.0000 C   0  0  0  0  0  0  0  0  0  0  0  0
   -1.0323   -0.7500    0.0000 C   0  0  0  0  0  0  0  0  0  0  0  0
   -1.0323    0.7500    0.0000 C   0  0  0  0  0  0  0  0  0  0  0  0
   -1.9140    0.4635    0.0000 C   0  0  0  0  0  0  0  0  0  0  0  0
   -3.0287    1.4672    0.0000 C   0  0  0  0  0  0  0  0  0  0  0  0
   -3.0287   -0.5402    0.0000 C   0  0  0  0  0  0  0  0  0  0  0  0
  2  3  1  0
  3  4  1  0
  4  5  1  0
  4  6  1  0
  6  7  1  0
  7  8  1  0
  8  9  1  0
  9 10  1  0
  9 11  1  0
 11 12  1  0
 11 13  1  0
 11  4  1  0
 10  6  1  0
M  END
$$$$
674654
     RDKit          2D

 22 23  0  0  0  0  0  0  0  0999 V2000
    3.5242    0.0000    0.0000 Cl  0  0  0  0  0  0  0  0  0  0  0  0
    2.3006   -6.3527    0.0000 C   0  0  0  0  0  0  0  0  0  0  0  0
    2.5242   -4.8694    0.0000 N   0  0  0  0  0  0  0  0  0  0  0  0
    1.3515   -3.9342    0.0000 C   0  0  0  0  0  0  0  0  0  0  0  0
    1.6852   -2.4718    0.0000 N   0  0  0  0  0  0  0  0  0  0  0  0
    0.7500   -1.2990    0.0000 C   0  0  0  0  0  0  0  0  0  0  0  0
    1.5000    0.0000    0.0000 C   0  0  0  0  0  0  0  0  0  0  0  0
    0.7500    1.2990    0.0000 C   0  0  0  0  0  0  0  0  0  0  0  0
   -0.7500    1.2990    0.0000 C   0  0  0  0  0  0  0  0  0  0  0  0
   -1.5000    2.5981    0.0000 Cl  0  0  0  0  0  0  0  0  0  0  0  0
   -1.5000    0.0000    0.0000 C   0  0  0  0  0  0  0  0  0  0  0  0
   -0.7500   -1.2990    0.0000 C   0  0  0  0  0  0  0  0  0  0  0  0
   -1.6852   -2.4718    0.0000 C   0  0  0  0  0  0  0  0  0  0  0  0
   -1.3515   -3.9342    0.0000 N   0  0  0  0  0  4  0  0  0  0  0  0
   -2.5242   -4.8694    0.0000 O   0  0  0  0  0  1  0  0  0  0  0  0
   -0.0000   -4.5850    0.0000 C   0  0  0  0  0  0  0  0  0  0  0  0
   -3.1476   -2.1380    0.0000 C   0  0  0  0  0  0  0  0  0  0  0  0
   -3.5898   -0.7046    0.0000 C   0  0  0  0  0  0  0  0  0  0  0  0
   -5.0522   -0.3709    0.0000 C   0  0  0  0  0  0  0  0  0  0  0  0
   -6.0724   -1.4704    0.0000 C   0  0  0  0  0  0  0  0  0  0  0  0
   -5.6303   -2.9038    0.0000 C   0  0  0  0  0  0  0  0  0  0  0  0
   -4.1679   -3.2376    0.0000 C   0  0  0  0  0  0  0  0  0  0  0  0
  2  3  1  0
  3  4  1  0
  4  5  2  0
  5  6  1  0
  6  7  2  0
  7  8  1  0
  8  9  2  0
  9 10  1  0
  9 11  1  0
 11 12  2  0
 12 13  1  0
 13 14  2  0
 14 15  1  0
 14 16  1  0
 13 17  1  0
 17 18  2  0
 18 19  1  0
 19 20  2  0
 20 21  1  0
 21 22  2  0
 16  4  1  0
 12  6  1  0
 22 17  1  0
M  CHG  2  14   1  15  -1
M  END
$$$$
675033
     RDKit          2D

 23 23  0  0  0  0  0  0  0  0999 V2000
    2.5000    0.0000    0.0000 Cl  0  0  0  0  0  0  0  0  0  0  0  0
    0.7500   -9.0933    0.0000 C   0  0  0  0  0  0  0  0  0  0  0  0
    1.5000   -7.7942    0.0000 N   0  0  0  0  0  0  0  0  0  0  0  0
    0.7500   -6.4952    0.0000 C   0  0  0  0  0  0  0  0  0  0  0  0
    1.5000   -5.1962    0.0000 C   0  0  0  0  0  0  0  0  0  0  0  0
    0.7500   -3.8971    0.0000 C   0  0  0  0  0  0  0  0  0  0  0  0
    1.5000   -2.5981    0.0000 O   0  0  0  0  0  0  0  0  0  0  0  0
    0.7500   -1.2990    0.0000 C   0  0  0  0  0  0  0  0  0  0  0  0
    1.5000    0.0000    0.0000 C   0  0  0  0  0  0  0  0  0  0  0  0
    0.7500    1.2990    0.0000 C   0  0  0  0  0  0  0  0  0  0  0  0
   -0.7500    1.2990    0.0000 C   0  0  0  0  0  0  0  0  0  0  0  0
   -1.5000    0.0000    0.0000 C   0  0  0  0  0  0  0  0  0  0  0  0
   -0.7500   -1.2990    0.0000 C   0  0  0  0  0  0  0  0  0  0  0  0
   -1.5000    2.5981    0.0000 C   0  0  0  0  0  0  0  0  0  0  0  0
   -2.2500    3.8971    0.0000 F   0  0  0  0  0  0  0  0  0  0  0  0
   -0.2010    3.3481    0.0000 F   0  0  0  0  0  0  0  0  0  0  0  0
   -2.7990    1.8481    0.0000 F   0  0  0  0  0  0  0  0  0  0  0  0
   -0.7500   -3.8971    0.0000 C   0  0  0  0  0  0  0  0  0  0  0  0
   -1.5000   -2.5981    0.0000 C   0  0  0  0  0  0  0  0  0  0  0  0
   -3.0000   -2.5981    0.0000 C   0  0  0  0  0  0  0  0  0  0  0  0
   -3.7500   -3.8971    0.0000 C   0  0  0  0  0  0  0  0  0  0  0  0
   -3.0000   -5.1962    0.0000 C   0  0  0  0  0  0  0  0  0  0  0  0
   -1.5000   -5.1962    0.0000 C   0  0  0  0  0  0  0  0  0  0  0  0
  2  3  1  0
  3  4  1  0
  4  5  1  0
  5  6  1  0
  6  7  1  0
  7  8  1  0
  8  9  2  0
  9 10  1  0
 10 11  2  0
 11 12  1  0
 12 13  2  0
 11 14  1  0
 14 15  1  0
 14 16  1  0
 14 17  1  0
  6 18  1  0
 18 19  2  0
 19 20  1  0
 20 21  2  0
 21 22  1  0
 22 23  2  0
 13  8  1  0
 23 18  1  0
M  END
$$$$
675107
     RDKit          2D

 21 22  0  0  0  0  0  0  0  0999 V2000
    0.0000    2.2990    0.0000 Cl  0  0  0  0  0  0  0  0  0  0  0  0
    8.1129   -3.6696    0.0000 C   0  0  0  0  0  0  0  0  0  0  0  0
    6.6505   -4.0034    0.0000 N   0  0  0  0  0  0  0  0  0  0  0  0
    5.6303   -2.9038    0.0000 C   0  0  0  0  0  0  0  0  0  0  0  0
    4.1679   -3.2376    0.0000 C   0  0  0  0  0  0  0  0  0  0  0  0
    3.1476   -2.1380    0.0000 C   0  0  0  0  0  0  0  0  0  0  0  0
    1.6852   -2.4718    0.0000 C   0  0  0  0  0  0  0  0  0  0  0  0
    0.7500   -1.2990    0.0000 C   0  0  0  0  0  0  0  0  0  0  0  0
    1.5000    0.0000    0.0000 C   0  0  0  0  0  0  0  0  0  0  0  0
    0.7500    1.2990    0.0000 C   0  0  0  0  0  0  0  0  0  0  0  0
   -0.7500    1.2990    0.0000 C   0  0  0  0  0  0  0  0  0  0  0  0
   -1.5000    0.0000    0.0000 C   0  0  0  0  0  0  0  0  0  0  0  0
   -0.7500   -1.2990    0.0000 C   0  0  0  0  0  0  0  0  0  0  0  0
   -1.6852   -2.4718    0.0000 C   0  0  0  0  0  0  0  0  0  0  0  0
   -1.3515   -3.9342    0.0000 C   0  0  0  0  0  0  0  0  0  0  0  0
   -0.0000   -4.5850    0.0000 C   0  0  0  0  0  0  0  0  0  0  0  0
   -0.1121   -6.0808    0.0000 C   0  0  0  0  0  0  0  0  0  0  0  0
    1.1273   -6.9258    0.0000 C   0  0  0  0  0  0  0  0  0  0  0  0
    2.4787   -6.2750    0.0000 C   0  0  0  0  0  0  0  0  0  0  0  0
    2.5908   -4.7792    0.0000 C   0  0  0  0  0  0  0  0  0  0  0  0
    1.3515   -3.9342    0.0000 C   0  0  0  0  0  0  0  0  0  0  0  0
  2  3  1  0
  3  4  1  0
  4  5  1  0
  5  6  1  0
  6  7  2  0
  7  8  1  0
  8  9  2  0
  9 10  1  0
 10 11  2  0
 11 12  1  0
 12 13  2  0
 13 14  1  0
 14 15  1  0
 15 16  1  0
 16 17  2  0
 17 18  1  0
 18 19  2  0
 19 20  1  0
 20 21  2  0
 21  7  1  0
 13  8  1  0
 21 16  1  0
M  END
$$$$
699486
     RDKit          2D

 22 24  0  0  0  0  0  0  0  0999 V2000
    0.0000    2.2990    0.0000 Cl  0  0  0  0  0  0  0  0  0  0  0  0
   -7.5000    0.0000    0.0000 C   0  0  0  0  0  0  0  0  0  0  0  0
   -6.0000    0.0000    0.0000 N   0  0  0  0  0  0  0  0  0  0  0  0
   -5.2500   -1.2990    0.0000 C   0  0  0  0  0  0  0  0  0  0  0  0
   -3.7500   -1.2990    0.0000 C   0  0  0  0  0  0  0  0  0  0  0  0
   -3.0000   -2.5981    0.0000 C   0  0  0  0  0  0  0  0  0  0  0  0
   -1.5000   -2.5981    0.0000 C   0  0  0  0  0  0  0  0  0  0  0  0
   -0.6782   -2.6485    0.0000 C   0  0  0  0  0  0  0  0  0  0  0  0
    0.6782   -2.6485    0.0000 C   0  0  0  0  0  0  0  0  0  0  0  0
    1.5000   -2.5981    0.0000 C   0  0  0  0  0  0  0  0  0  0  0  0
    0.7500   -3.8971    0.0000 C   0  0  0  0  0  0  0  0  0  0  0  0
    1.5000   -5.1962    0.0000 C   0  0  0  0  0  0  0  0  0  0  0  0
    0.7500   -6.4952    0.0000 C   0  0  0  0  0  0  0  0  0  0  0  0
   -0.7500   -6.4952    0.0000 C   0  0  0  0  0  0  0  0  0  0  0  0
   -1.5000   -5.1962    0.0000 C   0  0  0  0  0  0  0  0  0  0  0  0
   -0.7500   -3.8971    0.0000 C   0  0  0  0  0  0  0  0  0  0  0  0
    0.7500   -1.2990    0.0000 C   0  0  0  0  0  0  0  0  0  0  0  0
    1.5000    0.0000    0.0000 C   0  0  0  0  0  0  0  0  0  0  0  0
    0.7500    1.2990    0.0000 C   0  0  0  0  0  0  0  0  0  0  0  0
   -0.7500    1.2990    0.0000 C   0  0  0  0  0  0  0  0  0  0  0  0
   -1.5000    0.0000    0.0000 C   0  0  0  0  0  0  0  0  0  0  0  0
   -0.7500   -1.2990    0.0000 C   0  0  0  0  0  0  0  0  0  0  0  0
  2  3  1  0
  3  4  1  0
  4  5  1  0
  5  6  1  0
  6  7  1  0
  7  8  1  0
  8  9  1  0
  9 10  1  0
 10 11  1  0
 11 12  2  0
 12 13  1  0
 13 14  2  0
 14 15  1  0
 15 16  2  0
 10 17  1  0
 17 18  2  0
 18 19  1  0
 19 20  2  0
 20 21  1  0
 21 22  2  0
 16  7  1  0
 22  7  1  0
 16 11  1  0
 22 17  1  0
M  END
$$$$
674283
     RDKit          2D

 21 22  0  0  0  0  0  0  0  0999 V2000
    0.0000    2.2990    0.0000 Cl  0  0  0  0  0  0  0  0  0  0  0  0
    8.1129   -3.6696    0.0000 C   0  0  0  0  0  0  0  0  0  0  0  0
    6.6505   -4.0034    0.0000 N   0  0  0  0  0  0  0  0  0  0  0  0
    5.6303   -2.9038    0.0000 C   0  0  0  0  0  0  0  0  0  0  0  0
    4.1679   -3.2376    0.0000 C   0  0  0  0  0  0  0  0  0  0  0  0
    3.1476   -2.1380    0.0000 C   0  0  0  0  0  0  0  0  0  0  0  0
    1.6852   -2.4718    0.0000 C   0  0  0  0  0  0  0  0  0  0  0  0
    0.7500   -1.2990    0.0000 C   0  0  0  0  0  0  0  0  0  0  0  0
    1.5000    0.0000    0.0000 C   0  0  0  0  0  0  0  0  0  0  0  0
    0.7500    1.2990    0.0000 C   0  0  0  0  0  0  0  0  0  0  0  0
   -0.7500    1.2990    0.0000 C   0  0  0  0  0  0  0  0  0  0  0  0
   -1.5000    0.0000    0.0000 C   0  0  0  0  0  0  0  0  0  0  0  0
   -0.7500   -1.2990    0.0000 C   0  0  0  0  0  0  0  0  0  0  0  0
   -1.6852   -2.4718    0.0000 C   0  0  0  0  0  0  0  0  0  0  0  0
   -1.3515   -3.9342    0.0000 C   0  0  0  0  0  0  0  0  0  0  0  0
   -0.0000   -4.5850    0.0000 C   0  0  0  0  0  0  0  0  0  0  0  0
   -0.1121   -6.0808    0.0000 C   0  0  0  0  0  0  0  0  0  0  0  0
    1.1273   -6.9258    0.0000 C   0  0  0  0  0  0  0  0  0  0  0  0
    2.4787   -6.2750    0.0000 C   0  0  0  0  0  0  0  0  0  0  0  0
    2.5908   -4.7792    0.0000 C   0  0  0  0  0  0  0  0  0  0  0  0
    1.3515   -3.9342    0.0000 C   0  0  0  0  0  0  0  0  0  0  0  0
  2  3  1  0
  3  4  1  0
  4  5  1  0
  5  6  1  0
  6  7  1  0
  7  8  1  0
  8  9  2  0
  9 10  1  0
 10 11  2  0
 11 12  1  0
 12 13  2  0
 13 14  1  0
 14 15  2  0
 15 16  1  0
 16 17  2  0
 17 18  1  0
 18 19  2  0
 19 20  1  0
 20 21  2  0
 21  7  1  0
 13  8  1  0
 21 16  1  0
M  END
$$$$
545075
     RDKit          2D

 21 22  0  0  0  0  0  0  0  0999 V2000
    0.0000    2.2990    0.0000 Cl  0  0  0  0  0  0  0  0  0  0  0  0
    8.1129   -3.6696    0.0000 C   0  0  0  0  0  0  0  0  0  0  0  0
    6.6505   -4.0034    0.0000 N   0  0  0  0  0  0  0  0  0  0  0  0
    5.6303   -2.9038    0.0000 C   0  0  0  0  0  0  0  0  0  0  0  0
    4.1679   -3.2376    0.0000 C   0  0  0  0  0  0  0  0  0  0  0  0
    3.1476   -2.1380    0.0000 C   0  0  0  0  0  0  0  0  0  0  0  0
    1.6852   -2.4718    0.0000 N   0  0  0  0  0  0  0  0  0  0  0  0
    0.7500   -1.2990    0.0000 C   0  0  0  0  0  0  0  0  0  0  0  0
    1.5000    0.0000    0.0000 C   0  0  0  0  0  0  0  0  0  0  0  0
    0.7500    1.2990    0.0000 C   0  0  0  0  0  0  0  0  0  0  0  0
   -0.7500    1.2990    0.0000 C   0  0  0  0  0  0  0  0  0  0  0  0
   -1.5000    0.0000    0.0000 C   0  0  0  0  0  0  0  0  0  0  0  0
   -0.7500   -1.2990    0.0000 C   0  0  0  0  0  0  0  0  0  0  0  0
   -1.6852   -2.4718    0.0000 C   0  0  0  0  0  0  0  0  0  0  0  0
   -1.3515   -3.9342    0.0000 C   0  0  0  0  0  0  0  0  0  0  0  0
   -0.0000   -4.5850    0.0000 C   0  0  0  0  0  0  0  0  0  0  0  0
   -0.1121   -6.0808    0.0000 C   0  0  0  0  0  0  0  0  0  0  0  0
    1.1273   -6.9258    0.0000 C   0  0  0  0  0  0  0  0  0  0  0  0
    2.4787   -6.2750    0.0000 C   0  0  0  0  0  0  0  0  0  0  0  0
    2.5908   -4.7792    0.0000 C   0  0  0  0  0  0  0  0  0  0  0  0
    1.3515   -3.9342    0.0000 C   0  0  0  0  0  0  0  0  0  0  0  0
  2  3  1  0
  3  4  1  0
  4  5  1  0
  5  6  1  0
  6  7  1  0
  7  8  1  0
  8  9  2  0
  9 10  1  0
 10 11  2  0
 11 12  1  0
 12 13  2  0
 13 14  1  0
 14 15  1  0
 15 16  1  0
 16 17  2  0
 17 18  1  0
 18 19  2  0
 19 20  1  0
 20 21  2  0
 21  7  1  0
 13  8  1  0
 21 16  1  0
M  END
$$$$
547576
     RDKit          2D

 20 20  0  0  0  0  0  0  0  0999 V2000
    0.0000    2.2990    0.0000 Cl  0  0  0  0  0  0  0  0  0  0  0  0
    7.5000   -5.1962    0.0000 C   0  0  0  0  0  0  0  0  0  0  0  0
    6.0000   -5.1962    0.0000 N   0  0  0  0  0  0  0  0  0  0  0  0
    5.2500   -3.8971    0.0000 C   0  0  0  0  0  0  0  0  0  0  0  0
    3.7500   -3.8971    0.0000 C   0  0  0  0  0  0  0  0  0  0  0  0
    3.0000   -2.5981    0.0000 C   0  0  0  0  0  0  0  0  0  0  0  0
    1.5000   -2.5981    0.0000 O   0  0  0  0  0  0  0  0  0  0  0  0
    0.7500   -1.2990    0.0000 C   0  0  0  0  0  0  0  0  0  0  0  0
    1.5000    0.0000    0.0000 C   0  0  0  0  0  0  0  0  0  0  0  0
    0.7500    1.2990    0.0000 C   0  0  0  0  0  0  0  0  0  0  0  0
   -0.7500    1.2990    0.0000 C   0  0  0  0  0  0  0  0  0  0  0  0
   -1.5000    0.0000    0.0000 C   0  0  0  0  0  0  0  0  0  0  0  0
   -0.7500   -1.2990    0.0000 C   0  0  0  0  0  0  0  0  0  0  0  0
   -1.5000   -2.5981    0.0000 C   0  0  0  0  0  0  0  0  0  0  0  0
    3.7500   -1.2990    0.0000 C   0  0  0  0  0  0  0  0  0  0  0  0
    5.2500   -1.2990    0.0000 C   0  0  0  0  0  0  0  0  0  0  0  0
    6.0000   -0.0000    0.0000 C   0  0  0  0  0  0  0  0  0  0  0  0
    5.2500    1.2990    0.0000 C   0  0  0  0  0  0  0  0  0  0  0  0
    3.7500    1.2990    0.0000 C   0  0  0  0  0  0  0  0  0  0  0  0
    3.0000   -0.0000    0.0000 C   0  0  0  0  0  0  0  0  0  0  0  0
  2  3  1  0
  3  4  1  0
  4  5  1  0
  6  5  1  1
  6  7  1  0
  7  8  1  0
  8  9  2  0
  9 10  1  0
 10 11  2  0
 11 12  1  0
 12 13  2  0
 13 14  1  0
  6 15  1  0
 15 16  2  0
 16 17  1  0
 17 18  2  0
 18 19  1  0
 19 20  2  0
 13  8  1  0
 20 15  1  0
M  END
$$$$
674279
     RDKit          2D

 22 23  0  0  0  0  0  0  0  0999 V2000
    0.0000    2.2990    0.0000 Cl  0  0  0  0  0  0  0  0  0  0  0  0
   -8.2500   -6.4952    0.0000 C   0  0  0  0  0  0  0  0  0  0  0  0
   -7.5000   -5.1962    0.0000 N   0  0  0  0  0  0  0  0  0  0  0  0
   -6.0000   -5.1962    0.0000 C   0  0  0  0  0  0  0  0  0  0  0  0
   -5.2500   -3.8971    0.0000 C   0  0  0  0  0  0  0  0  0  0  0  0
   -3.7500   -3.8971    0.0000 C   0  0  0  0  0  0  0  0  0  0  0  0
   -3.0000   -2.5981    0.0000 O   0  0  0  0  0  0  0  0  0  0  0  0
   -1.5000   -2.5981    0.0000 C   0  0  0  0  0  0  0  0  0  0  0  0
   -0.7500   -3.8971    0.0000 C   0  0  0  0  0  0  0  0  0  0  0  0
    0.7500   -3.8971    0.0000 C   0  0  0  0  0  0  0  0  0  0  0  0
    1.5000   -2.5981    0.0000 C   0  0  0  0  0  0  0  0  0  0  0  0
    0.7500   -1.2990    0.0000 C   0  0  0  0  0  0  0  0  0  0  0  0
    1.5000    0.0000    0.0000 C   0  0  0  0  0  0  0  0  0  0  0  0
    0.7500    1.2990    0.0000 C   0  0  0  0  0  0  0  0  0  0  0  0
   -0.7500    1.2990    0.0000 C   0  0  0  0  0  0  0  0  0  0  0  0
   -1.5000    0.0000    0.0000 C   0  0  0  0  0  0  0  0  0  0  0  0
   -0.7500   -1.2990    0.0000 C   0  0  0  0  0  0  0  0  0  0  0  0
   -3.0000   -5.1962    0.0000 C   0  0  0  0  0  0  0  0  0  0  0  0
   -1.5082   -5.3529    0.0000 C   0  0  0  0  0  0  0  0  0  0  0  0
   -1.1963   -6.8202    0.0000 C   0  0  0  0  0  0  0  0  0  0  0  0
   -2.4954   -7.5702    0.0000 C   0  0  0  0  0  0  0  0  0  0  0  0
   -3.6101   -6.5665    0.0000 S   0  0  0  0  0  0  0  0  0  0  0  0
  2  3  1  0
  3  4  1  0
  4  5  1  0
  6  5  1  6
  6  7  1  0
  7  8  1  0
  8  9  2  0
  9 10  1  0
 10 11  2  0
 11 12  1  0
 12 13  2  0
 13 14  1  0
 14 15  2  0
 15 16  1  0
 16 17  2  0
  6 18  1  0
 18 19  2  0
 19 20  1  0
 20 21  2  0
 21 22  1  0
 17  8  1  0
 17 12  1  0
 22 18  1  0
M  END
$$$$
674290
     RDKit          2D

 13 12  0  0  0  0  0  0  0  0999 V2000
    0.0000    3.5981    0.0000 Cl  0  0  0  0  0  0  0  0  0  0  0  0
    6.0000   -2.5981    0.0000 C   0  0  0  0  0  0  0  0  0  0  0  0
    5.2500   -1.2990    0.0000 N   0  0  0  0  0  0  0  0  0  0  0  0
    3.7500   -1.2990    0.0000 C   0  0  0  0  0  0  0  0  0  0  0  0
    3.0000    0.0000    0.0000 C   0  0  0  0  0  0  0  0  0  0  0  0
    3.7500    1.2990    0.0000 O   0  0  0  0  0  0  0  0  0  0  0  0
    1.5000    0.0000    0.0000 C   0  0  0  0  0  0  0  0  0  0  0  0
    0.7500   -1.2990    0.0000 C   0  0  0  0  0  0  0  0  0  0  0  0
   -0.7500   -1.2990    0.0000 C   0  0  0  0  0  0  0  0  0  0  0  0
   -1.5000    0.0000    0.0000 C   0  0  0  0  0  0  0  0  0  0  0  0
   -0.7500    1.2990    0.0000 C   0  0  0  0  0  0  0  0  0  0  0  0
   -1.5000    2.5981    0.0000 O   0  0  0  0  0  0  0  0  0  0  0  0
    0.7500    1.2990    0.0000 C   0  0  0  0  0  0  0  0  0  0  0  0
  2  3  1  0
  3  4  1  0
  4  5  1  0
  5  6  1  1
  5  7  1  0
  7  8  2  0
  8  9  1  0
  9 10  2  0
 10 11  1  0
 11 12  1  0
 11 13  2  0
 13  7  1  0
M  END
$$$$
674361
     RDKit          2D

 17 16  0  0  0  0  0  0  0  0999 V2000
    0.0000    3.5981    0.0000 Cl  0  0  0  0  0  0  0  0  0  0  0  0
    6.0000   -2.5981    0.0000 C   0  0  0  0  0  0  0  0  0  0  0  0
    5.2500   -1.2990    0.0000 N   0  0  0  0  0  0  0  0  0  0  0  0
    3.7500   -1.2990    0.0000 N   0  0  0  0  0  0  0  0  0  0  0  0
    3.0000    0.0000    0.0000 C   0  0  0  0  0  0  0  0  0  0  0  0
    1.5000    0.0000    0.0000 C   0  0  0  0  0  0  0  0  0  0  0  0
    0.7500   -1.2990    0.0000 C   0  0  0  0  0  0  0  0  0  0  0  0
   -0.7500   -1.2990    0.0000 C   0  0  0  0  0  0  0  0  0  0  0  0
   -1.5000    0.0000    0.0000 C   0  0  0  0  0  0  0  0  0  0  0  0
   -0.7500    1.2990    0.0000 C   0  0  0  0  0  0  0  0  0  0  0  0
    0.7500    1.2990    0.0000 C   0  0  0  0  0  0  0  0  0  0  0  0
   -3.0000    0.0000    0.0000 C   0  0  0  0  0  0  0  0  0  0  0  0
   -3.7500   -1.2990    0.0000 O   0  0  0  0  0  0  0  0  0  0  0  0
   -3.7500    1.2990    0.0000 N   0  0  0  0  0  0  0  0  0  0  0  0
   -5.2500    1.2990    0.0000 C   0  0  0  0  0  0  0  0  0  0  0  0
   -6.0000    2.5981    0.0000 C   0  0  0  0  0  0  0  0  0  0  0  0
   -6.0000    0.0000    0.0000 C   0  0  0  0  0  0  0  0  0  0  0  0
  2  3  1  0
  3  4  1  0
  4  5  1  0
  5  6  1  0
  6  7  2  0
  7  8  1  0
  8  9  2  0
  9 10  1  0
 10 11  2  0
  9 12  1  0
 12 13  2  0
 12 14  1  0
 14 15  1  0
 15 16  1  0
 15 17  1  0
 11  6  1  0
M  END
$$$$
674552
     RDKit          2D

 24 25  0  0  0  0  0  0  0  0999 V2000
    8.5000    0.0000    0.0000 Cl  0  0  0  0  0  0  0  0  0  0  0  0
    7.5000    0.0000    0.0000 C   0  0  0  0  0  0  0  0  0  0  0  0
    6.7500   -1.2990    0.0000 N   0  0  0  0  0  0  0  0  0  0  0  0
    5.2500   -1.2990    0.0000 S   0  0  0  0  0  0  0  0  0  0  0  0
    5.2500   -2.7990    0.0000 O   0  0  0  0  0  0  0  0  0  0  0  0
    5.2500    0.2010    0.0000 O   0  0  0  0  0  0  0  0  0  0  0  0
    3.7500   -1.2990    0.0000 C   0  0  0  0  0  0  0  0  0  0  0  0
    3.0000    0.0000    0.0000 C   0  0  0  0  0  0  0  0  0  0  0  0
    1.5000    0.0000    0.0000 C   0  0  0  0  0  0  0  0  0  0  0  0
    0.7500   -1.2990    0.0000 C   0  0  0  0  0  0  0  0  0  0  0  0
   -0.7500   -1.2990    0.0000 C   0  0  0  0  0  0  0  0  0  0  0  0
   -1.5000    0.0000    0.0000 C   0  0  0  0  0  0  0  0  0  0  0  0
   -2.9672    0.3119    0.0000 N   0  0  0  0  0  0  0  0  0  0  0  0
   -3.1240    1.8037    0.0000 C   0  0  0  0  0  0  0  0  0  0  0  0
   -1.7537    2.4138    0.0000 C   0  0  0  0  0  0  0  0  0  0  0  0
   -1.4418    3.8810    0.0000 C   0  0  0  0  0  0  0  0  0  0  0  0
   -0.0152    4.3445    0.0000 C   0  0  0  0  0  0  0  0  0  0  0  0
    0.2966    5.8117    0.0000 C   0  0  0  0  0  0  0  0  0  0  0  0
   -0.8181    6.8154    0.0000 N   0  0  0  0  0  0  0  0  0  0  0  0
   -0.5062    8.2826    0.0000 C   0  0  0  0  0  0  0  0  0  0  0  0
   -2.2447    6.3519    0.0000 C   0  0  0  0  0  0  0  0  0  0  0  0
   -2.5565    4.8847    0.0000 C   0  0  0  0  0  0  0  0  0  0  0  0
   -0.7500    1.2990    0.0000 C   0  0  0  0  0  0  0  0  0  0  0  0
    0.7500    1.2990    0.0000 C   0  0  0  0  0  0  0  0  0  0  0  0
  2  3  1  0
  3  4  1  0
  4  5  2  0
  4  6  2  0
  4  7  1  0
  7  8  1  0
  8  9  1  0
  9 10  2  0
 10 11  1  0
 11 12  2  0
 12 13  1  0
 13 14  1  0
 14 15  2  0
 15 16  1  0
 16 17  1  0
 17 18  1  0
 18 19  1  0
 19 20  1  0
 19 21  1  0
 21 22  1  0
 15 23  1  0
 23 24  2  0
 24  9  1  0
 23 12  1  0
 22 16  1  0
M  END
$$$$
674903
     RDKit          2D

 12 11  0  0  0  0  0  0  0  0999 V2000
    0.0000    2.2990    0.0000 Cl  0  0  0  0  0  0  0  0  0  0  0  0
    3.7500   -3.8971    0.0000 C   0  0  0  0  0  0  0  0  0  0  0  0
    3.0000   -2.5981    0.0000 N   0  0  0  0  0  0  0  0  0  0  0  0
    3.7500   -1.2990    0.0000 C   0  0  0  0  0  0  0  0  0  0  0  0
    5.2500   -1.2990    0.0000 C   0  0  0  0  0  0  0  0  0  0  0  0
    3.0000    0.0000    0.0000 C   0  0  0  0  0  0  0  0  0  0  0  0
    1.5000    0.0000    0.0000 C   0  0  0  0  0  0  0  0  0  0  0  0
    0.7500   -1.2990    0.0000 C   0  0  0  0  0  0  0  0  0  0  0  0
   -0.7500   -1.2990    0.0000 C   0  0  0  0  0  0  0  0  0  0  0  0
   -1.5000    0.0000    0.0000 C   0  0  0  0  0  0  0  0  0  0  0  0
   -0.7500    1.2990    0.0000 C   0  0  0  0  0  0  0  0  0  0  0  0
    0.7500    1.2990    0.0000 C   0  0  0  0  0  0  0  0  0  0  0  0
  2  3  1  0
  3  4  1  0
  4  5  1  6
  4  6  1  0
  6  7  1  0
  7  8  2  0
  8  9  1  0
  9 10  2  0
 10 11  1  0
 11 12  2  0
 12  7  1  0
M  END
$$$$
674675
     RDKit          2D

 13 12  0  0  0  0  0  0  0  0999 V2000
    0.0000    2.2990    0.0000 Cl  0  0  0  0  0  0  0  0  0  0  0  0
    3.7500   -3.8971    0.0000 C   0  0  0  0  0  0  0  0  0  0  0  0
    3.0000   -2.5981    0.0000 N   0  0  0  0  0  0  0  0  0  0  0  0
    3.7500   -1.2990    0.0000 C   0  0  0  0  0  0  0  0  0  0  0  0
    5.2500   -1.2990    0.0000 C   0  0  0  0  0  0  0  0  0  0  0  0
    3.0000    0.0000    0.0000 C   0  0  0  0  0  0  0  0  0  0  0  0
    3.7500    1.2990    0.0000 O   0  0  0  0  0  0  0  0  0  0  0  0
    1.5000    0.0000    0.0000 C   0  0  0  0  0  0  0  0  0  0  0  0
    0.7500   -1.2990    0.0000 C   0  0  0  0  0  0  0  0  0  0  0  0
   -0.7500   -1.2990    0.0000 C   0  0  0  0  0  0  0  0  0  0  0  0
   -1.5000    0.0000    0.0000 C   0  0  0  0  0  0  0  0  0  0  0  0
   -0.7500    1.2990    0.0000 C   0  0  0  0  0  0  0  0  0  0  0  0
    0.7500    1.2990    0.0000 C   0  0  0  0  0  0  0  0  0  0  0  0
  2  3  1  0
  3  4  1  0
  4  5  1  6
  4  6  1  0
  6  7  1  6
  6  8  1  0
  8  9  2  0
  9 10  1  0
 10 11  2  0
 11 12  1  0
 12 13  2  0
 13  8  1  0
M  END
$$$$
674579
     RDKit          2D

102110  0  0  0  0  0  0  0  0999 V2000
    0.0000   14.9772    0.0000 Cl  0  0  0  0  0  0  0  0  0  0  0  0
    6.2505   -8.2743    0.0000 C   0  0  0  0  0  0  0  0  0  0  0  0
    5.7684   -6.8539    0.0000 N   0  0  0  0  0  0  0  0  0  0  0  0
    4.2972   -6.5613    0.0000 C   0  0  0  0  0  0  0  0  0  0  0  0
    3.3082   -7.6891    0.0000 C   0  0  0  0  0  0  0  0  0  0  0  0
    3.7903   -9.1095    0.0000 C   0  0  0  0  0  0  0  0  0  0  0  0
    2.8013  -10.2372    0.0000 C   0  0  0  0  0  0  0  0  0  0  0  0
    5.2615   -9.4021    0.0000 C   0  0  0  0  0  0  0  0  0  0  0  0
    3.8150   -5.1409    0.0000 C   0  0  0  0  0  0  0  0  0  0  0  0
    2.4687   -5.0409    0.0000 O   0  0  0  0  0  0  0  0  0  0  0  0
    4.8040   -4.0131    0.0000 N   0  0  0  0  0  0  0  0  0  0  0  0
    4.3219   -2.5927    0.0000 C   0  0  0  0  0  0  0  0  0  0  0  0
    2.8347   -2.7885    0.0000 C   0  0  0  0  0  0  0  0  0  0  0  0
    2.5829   -4.1148    0.0000 O   0  0  0  0  0  0  0  0  0  0  0  0
    0.7500   -1.2990    0.0000 C   0  0  0  0  0  0  0  0  0  0  0  0
    1.5000    0.0000    0.0000 C   0  0  0  0  0  0  0  0  0  0  0  0
    0.7500    1.2990    0.0000 C   0  0  0  0  0  0  0  0  0  0  0  0
   -0.7500    1.2990    0.0000 C   0  0  0  0  0  0  0  0  0  0  0  0
   -0.3618    2.7479    0.0000 O   0  0  0  0  0  0  0  0  0  0  0  0
    0.5514    3.9380    0.0000 C   0  0  0  0  0  0  0  0  0  0  0  0
    1.8504    4.6880    0.0000 C   0  0  0  0  0  0  0  0  0  0  0  0
    3.3376    4.8837    0.0000 C   0  0  0  0  0  0  0  0  0  0  0  0
    2.1475    5.7969    0.0000 C   0  0  0  0  0  0  0  0  0  0  0  0
    1.3975    7.0959    0.0000 C   0  0  0  0  0  0  0  0  0  0  0  0
    1.2018    8.5831    0.0000 O   0  0  0  0  0  0  0  0  0  0  0  0
    1.5900   10.0320    0.0000 C   0  0  0  0  0  0  0  0  0  0  0  0
    2.5031   11.2220    0.0000 C   0  0  0  0  0  0  0  0  0  0  0  0
    3.8022   11.9720    0.0000 C   0  0  0  0  0  0  0  0  0  0  0  0
    5.2893   12.1678    0.0000 C   0  0  0  0  0  0  0  0  0  0  0  0
    4.3762   10.9778    0.0000 C   0  0  0  0  0  0  0  0  0  0  0  0
    3.0772   10.2278    0.0000 C   0  0  0  0  0  0  0  0  0  0  0  0
    3.5593    8.8074    0.0000 Cl  0  0  0  0  0  0  0  0  0  0  0  0
    6.7382   11.7796    0.0000 C   0  0  0  0  0  0  0  0  0  0  0  0
    7.4017   13.1249    0.0000 O   0  0  0  0  0  0  0  0  0  0  0  0
    7.9283   10.8664    0.0000 C   0  0  0  0  0  0  0  0  0  0  0  0
    8.6783    9.5674    0.0000 N   0  0  0  0  0  0  0  0  0  0  0  0
    8.8740    8.0802    0.0000 C   0  0  0  0  0  0  0  0  0  0  0  0
   10.3708    7.9821    0.0000 O   0  0  0  0  0  0  0  0  0  0  0  0
    8.4858    6.6313    0.0000 C   0  0  0  0  0  0  0  0  0  0  0  0
    7.5727    5.4413    0.0000 N   0  0  0  0  0  0  0  0  0  0  0  0
    6.2736    4.6913    0.0000 C   0  0  0  0  0  0  0  0  0  0  0  0
    7.0852    3.4298    0.0000 O   0  0  0  0  0  0  0  0  0  0  0  0
    4.7865    4.4955    0.0000 C   0  0  0  0  0  0  0  0  0  0  0  0
    5.9765    3.5824    0.0000 N   0  0  0  0  0  0  0  0  0  0  0  0
    6.7265    2.2833    0.0000 C   0  0  0  0  0  0  0  0  0  0  0  0
    8.1469    2.7655    0.0000 O   0  0  0  0  0  0  0  0  0  0  0  0
    6.9223    0.7962    0.0000 C   0  0  0  0  0  0  0  0  0  0  0  0
    8.4191    0.6981    0.0000 C   0  0  0  0  0  0  0  0  0  0  0  0
    9.0825   -0.6472    0.0000 C   0  0  0  0  0  0  0  0  0  0  0  0
    8.2492   -1.8944    0.0000 O   0  0  0  0  0  0  0  0  0  0  0  0
   10.5793   -0.7453    0.0000 N   0  0  0  0  0  0  0  0  0  0  0  0
    6.5341   -0.6527    0.0000 N   0  0  0  0  0  0  0  0  0  0  0  0
    5.6209   -1.8427    0.0000 C   0  0  0  0  0  0  0  0  0  0  0  0
    6.6099   -2.9705    0.0000 O   0  0  0  0  0  0  0  0  0  0  0  0
    9.8490    6.2294    0.0000 C   0  0  0  0  0  0  0  0  0  0  0  0
   10.6999    4.9583    0.0000 C   0  0  0  0  0  0  0  0  0  0  0  0
   12.1871    4.7625    0.0000 C   0  0  0  0  0  0  0  0  0  0  0  0
   13.1002    5.9525    0.0000 C   0  0  0  0  0  0  0  0  0  0  0  0
   14.5874    5.7567    0.0000 O   0  0  0  0  0  0  0  0  0  0  0  0
   12.5262    7.3383    0.0000 C   0  0  0  0  0  0  0  0  0  0  0  0
   11.3361    6.4252    0.0000 C   0  0  0  0  0  0  0  0  0  0  0  0
   13.1002    8.7241    0.0000 C   0  0  0  0  0  0  0  0  0  0  0  0
   14.4860    8.1501    0.0000 C   0  0  0  0  0  0  0  0  0  0  0  0
   14.6818    6.6629    0.0000 O   0  0  0  0  0  0  0  0  0  0  0  0
   15.6760    9.0633    0.0000 C   0  0  0  0  0  0  0  0  0  0  0  0
   15.4803   10.5504    0.0000 C   0  0  0  0  0  0  0  0  0  0  0  0
   16.6703   11.4636    0.0000 O   0  0  0  0  0  0  0  0  0  0  0  0
   14.0944   11.1244    0.0000 C   0  0  0  0  0  0  0  0  0  0  0  0
   12.9044   10.2113    0.0000 C   0  0  0  0  0  0  0  0  0  0  0  0
   11.9913   11.4013    0.0000 C   0  0  0  0  0  0  0  0  0  0  0  0
   10.6054   11.9754    0.0000 N   0  0  0  0  0  0  0  0  0  0  0  0
    9.1183   11.7796    0.0000 C   0  0  0  0  0  0  0  0  0  0  0  0
    8.5443   13.1654    0.0000 O   0  0  0  0  0  0  0  0  0  0  0  0
   12.9044   12.5914    0.0000 C   0  0  0  0  0  0  0  0  0  0  0  0
   14.3916   12.3956    0.0000 O   0  0  0  0  0  0  0  0  0  0  0  0
   12.3304   13.9772    0.0000 O   0  0  0  0  0  0  0  0  0  0  0  0
    0.1631    5.3868    0.0000 C   0  0  0  0  0  0  0  0  0  0  0  0
   -1.2857    5.7751    0.0000 O   0  0  0  0  0  0  0  0  0  0  0  0
   -1.6740    7.2240    0.0000 C   0  0  0  0  0  0  0  0  0  0  0  0
   -0.6133    8.2846    0.0000 O   0  0  0  0  0  0  0  0  0  0  0  0
   -1.0015    9.7335    0.0000 C   0  0  0  0  0  0  0  0  0  0  0  0
    0.0591   10.7942    0.0000 C   0  0  0  0  0  0  0  0  0  0  0  0
   -0.3291   12.2431    0.0000 O   0  0  0  0  0  0  0  0  0  0  0  0
   -2.4504   10.1217    0.0000 C   0  0  0  0  0  0  0  0  0  0  0  0
   -2.8387   11.5706    0.0000 O   0  0  0  0  0  0  0  0  0  0  0  0
   -3.5111    9.0611    0.0000 C   0  0  0  0  0  0  0  0  0  0  0  0
   -4.9600    9.4493    0.0000 O   0  0  0  0  0  0  0  0  0  0  0  0
   -3.1229    7.6122    0.0000 C   0  0  0  0  0  0  0  0  0  0  0  0
   -4.1835    6.5515    0.0000 O   0  0  0  0  0  0  0  0  0  0  0  0
   -5.6324    6.9398    0.0000 C   0  0  0  0  0  0  0  0  0  0  0  0
   -6.0206    8.3886    0.0000 C   0  0  0  0  0  0  0  0  0  0  0  0
   -7.4695    8.7769    0.0000 C   0  0  0  0  0  0  0  0  0  0  0  0
   -8.6983    9.6372    0.0000 C   0  0  0  0  0  0  0  0  0  0  0  0
   -6.8356   10.1363    0.0000 N   0  0  0  0  0  0  0  0  0  0  0  0
   -8.5302    7.7162    0.0000 C   0  0  0  0  0  0  0  0  0  0  0  0
   -9.9791    8.1044    0.0000 O   0  0  0  0  0  0  0  0  0  0  0  0
   -8.1420    6.2673    0.0000 C   0  0  0  0  0  0  0  0  0  0  0  0
   -9.2026    5.2067    0.0000 C   0  0  0  0  0  0  0  0  0  0  0  0
   -6.6931    5.8791    0.0000 O   0  0  0  0  0  0  0  0  0  0  0  0
   -1.5000    0.0000    0.0000 C   0  0  0  0  0  0  0  0  0  0  0  0
   -3.0000    0.0000    0.0000 Cl  0  0  0  0  0  0  0  0  0  0  0  0
   -0.7500   -1.2990    0.0000 C   0  0  0  0  0  0  0  0  0  0  0  0
  2  3  1  0
  3  4  1  0
  4  5  1  6
  5  6  1  0
  6  7  1  0
  6  8  1  0
  4  9  1  0
  9 10  2  0
  9 11  1  0
 12 11  1  6
 12 13  1  0
 13 14  1  6
 13 15  1  0
 15 16  2  0
 16 17  1  0
 17 18  2  0
 18 19  1  0
 19 20  1  0
 20 21  1  0
 21 22  2  0
 22 23  1  0
 23 24  2  0
 24 25  1  0
 25 26  1  0
 26 27  2  0
 27 28  1  0
 28 29  2  0
 29 30  1  0
 30 31  2  0
 31 32  1  0
 29 33  1  0
 33 34  1  1
 33 35  1  0
 35 36  1  0
 36 37  1  0
 37 38  2  0
 37 39  1  0
 39 40  1  0
 40 41  1  0
 41 42  2  0
 41 43  1  0
 43 44  1  6
 44 45  1  0
 45 46  2  0
 45 47  1  0
 47 48  1  6
 48 49  1  0
 49 50  2  0
 49 51  1  0
 47 52  1  0
 52 53  1  0
 53 54  2  0
 39 55  1  1
 55 56  2  0
 56 57  1  0
 57 58  2  0
 58 59  1  0
 58 60  1  0
 60 61  2  0
 60 62  1  0
 62 63  2  0
 63 64  1  0
 63 65  1  0
 65 66  2  0
 66 67  1  0
 66 68  1  0
 68 69  2  0
 69 70  1  0
 70 71  1  0
 71 72  1  0
 72 73  2  0
 70 74  1  6
 74 75  2  0
 74 76  1  0
 24 77  1  0
 77 78  1  0
 79 78  1  1
 79 80  1  0
 80 81  1  0
 81 82  1  1
 82 83  1  0
 81 84  1  0
 84 85  1  6
 84 86  1  0
 86 87  1  1
 86 88  1  0
 88 89  1  6
 90 89  1  6
 90 91  1  0
 91 92  1  0
 92 93  1  6
 92 94  1  0
 92 95  1  0
 95 96  1  1
 95 97  1  0
 97 98  1  1
 97 99  1  0
 18100  1  0
100101  1  0
100102  2  0
 53 12  1  0
102 15  1  0
 77 20  2  0
 43 22  1  0
 31 26  1  0
 35 72  1  1
 61 55  1  0
 69 62  1  0
 88 79  1  0
 99 90  1  0
M  END
$$$$
549372
     RDKit          2D

 21 22  0  0  0  0  0  0  0  0999 V2000
    0.0000    2.2990    0.0000 Cl  0  0  0  0  0  0  0  0  0  0  0  0
   -3.7500   -3.8971    0.0000 C   0  0  0  0  0  0  0  0  0  0  0  0
   -3.0000   -2.5981    0.0000 N   0  0  0  0  0  0  0  0  0  0  0  0
   -1.5000   -2.5981    0.0000 C   0  0  0  0  0  0  0  0  0  0  0  0
   -0.7500   -3.8971    0.0000 C   0  0  0  0  0  0  0  0  0  0  0  0
    0.7500   -3.8971    0.0000 C   0  0  0  0  0  0  0  0  0  0  0  0
    1.5000   -2.5981    0.0000 C   0  0  0  0  0  0  0  0  0  0  0  0
    3.0000   -2.5981    0.0000 C   0  0  0  0  0  0  0  0  0  0  0  0
    3.7500   -3.8971    0.0000 C   0  0  0  0  0  0  0  0  0  0  0  0
    5.2500   -3.8971    0.0000 C   0  0  0  0  0  0  0  0  0  0  0  0
    6.0000   -2.5981    0.0000 C   0  0  0  0  0  0  0  0  0  0  0  0
    7.5000   -2.5981    0.0000 Cl  0  0  0  0  0  0  0  0  0  0  0  0
    5.2500   -1.2990    0.0000 C   0  0  0  0  0  0  0  0  0  0  0  0
    6.0000    0.0000    0.0000 Cl  0  0  0  0  0  0  0  0  0  0  0  0
    3.7500   -1.2990    0.0000 C   0  0  0  0  0  0  0  0  0  0  0  0
    0.7500   -1.2990    0.0000 C   0  0  0  0  0  0  0  0  0  0  0  0
    1.5000    0.0000    0.0000 C   0  0  0  0  0  0  0  0  0  0  0  0
    0.7500    1.2990    0.0000 C   0  0  0  0  0  0  0  0  0  0  0  0
   -0.7500    1.2990    0.0000 C   0  0  0  0  0  0  0  0  0  0  0  0
   -1.5000    0.0000    0.0000 C   0  0  0  0  0  0  0  0  0  0  0  0
   -0.7500   -1.2990    0.0000 C   0  0  0  0  0  0  0  0  0  0  0  0
  2  3  1  0
  4  3  1  6
  4  5  1  0
  5  6  1  0
  6  7  1  0
  7  8  1  6
  8  9  2  0
  9 10  1  0
 10 11  2  0
 11 12  1  0
 11 13  1  0
 13 14  1  0
 13 15  2  0
  7 16  1  0
 16 17  2  0
 17 18  1  0
 18 19  2  0
 19 20  1  0
 20 21  2  0
 21  4  1  0
 15  8  1  0
 21 16  1  0
M  END
$$$$
675002
     RDKit          2D

 18 17  0  0  0  0  0  0  0  0999 V2000
    0.0000    2.2135    0.0000 Cl  0  0  0  0  0  0  0  0  0  0  0  0
    8.0260   -6.4952    0.0000 C   0  0  0  0  0  0  0  0  0  0  0  0
    7.2760   -5.1962    0.0000 N   0  0  0  0  0  0  0  0  0  0  0  0
    8.0260   -3.8971    0.0000 C   0  0  0  0  0  0  0  0  0  0  0  0
    7.2760   -2.5981    0.0000 N   0  0  0  0  0  0  0  0  0  0  0  0
    5.7760   -2.5981    0.0000 C   0  0  0  0  0  0  0  0  0  0  0  0
    5.0260   -1.2990    0.0000 C   0  0  0  0  0  0  0  0  0  0  0  0
    3.5260   -1.2990    0.0000 S   0  0  0  0  0  0  0  0  0  0  0  0
    2.7760    0.0000    0.0000 C   0  0  0  0  0  0  0  0  0  0  0  0
    1.2760    0.0000    0.0000 C   0  0  0  0  0  0  0  0  0  0  0  0
    0.3943    1.2135    0.0000 N   0  0  0  0  0  0  0  0  0  0  0  0
   -1.0323    0.7500    0.0000 C   0  0  0  0  0  0  0  0  0  0  0  0
   -1.0323   -0.7500    0.0000 N   0  0  0  0  0  0  0  0  0  0  0  0
    0.3943   -1.2135    0.0000 C   0  0  0  0  0  0  0  0  0  0  0  0
    0.8578   -2.6401    0.0000 C   0  0  0  0  0  0  0  0  0  0  0  0
    9.5260   -3.8971    0.0000 N   0  0  0  0  0  0  0  0  0  0  0  0
   10.2760   -5.1962    0.0000 C   0  0  0  0  0  0  0  0  0  0  0  0
   11.0260   -6.4952    0.0000 N   0  0  0  0  0  0  0  0  0  0  0  0
  2  3  1  0
  3  4  1  0
  4  5  2  0
  5  6  1  0
  6  7  1  0
  7  8  1  0
  8  9  1  0
  9 10  1  0
 10 11  1  0
 11 12  2  0
 12 13  1  0
 13 14  1  0
 14 15  1  0
  4 16  1  0
 16 17  1  0
 17 18  3  0
 14 10  2  0
M  END
$$$$
552883
     RDKit          2D

 18 18  0  0  0  0  0  0  0  0999 V2000
    6.2500    0.0000    0.0000 Cl  0  0  0  0  0  0  0  0  0  0  0  0
    5.2500   -3.8971    0.0000 C   0  0  0  0  0  0  0  0  0  0  0  0
    3.7500   -3.8971    0.0000 O   0  0  0  0  0  0  0  0  0  0  0  0
    3.0000   -2.5981    0.0000 C   0  0  0  0  0  0  0  0  0  0  0  0
    3.7500   -1.2990    0.0000 O   0  0  0  0  0  0  0  0  0  0  0  0
    1.5000   -2.5981    0.0000 C   0  0  0  0  0  0  0  0  0  0  0  0
    0.7500   -1.2990    0.0000 C   0  0  0  0  0  0  0  0  0  0  0  0
    1.5000    0.0000    0.0000 C   0  0  0  0  0  0  0  0  0  0  0  0
    0.7500    1.2990    0.0000 C   0  0  0  0  0  0  0  0  0  0  0  0
   -0.7500    1.2990    0.0000 C   0  0  0  0  0  0  0  0  0  0  0  0
   -1.5000    0.0000    0.0000 C   0  0  0  0  0  0  0  0  0  0  0  0
   -0.7500   -1.2990    0.0000 N   0  0  0  0  0  0  0  0  0  0  0  0
    0.7500   -3.8971    0.0000 C   0  0  0  0  0  0  0  0  0  0  0  0
   -0.7500   -3.8971    0.0000 C   0  0  0  0  0  0  0  0  0  0  0  0
   -1.5000   -5.1962    0.0000 C   0  0  0  0  0  0  0  0  0  0  0  0
   -0.7500   -6.4952    0.0000 C   0  0  0  0  0  0  0  0  0  0  0  0
    0.7500   -6.4952    0.0000 C   0  0  0  0  0  0  0  0  0  0  0  0
    1.5000   -5.1962    0.0000 C   0  0  0  0  0  0  0  0  0  0  0  0
  2  3  1  0
  3  4  1  0
  4  5  2  0
  4  6  1  0
  6  7  1  0
  7  8  1  0
  8  9  1  0
  9 10  1  0
 10 11  1  0
 11 12  1  0
  6 13  1  0
 13 14  2  0
 14 15  1  0
 15 16  2  0
 16 17  1  0
 17 18  2  0
 12  7  1  0
 18 13  1  0
M  END
$$$$
674277
     RDKit          2D

 36 37  0  0  0  0  0  0  0  0999 V2000
    0.0000   11.3923    0.0000 Cl  0  0  0  0  0  0  0  0  0  0  0  0
    5.2500   -1.2990    0.0000 C   0  0  0  0  0  0  0  0  0  0  0  0
    3.7500   -1.2990    0.0000 O   0  0  0  0  0  0  0  0  0  0  0  0
    3.0000    0.0000    0.0000 C   0  0  0  0  0  0  0  0  0  0  0  0
    3.7500    1.2990    0.0000 O   0  0  0  0  0  0  0  0  0  0  0  0
    1.5000    0.0000    0.0000 C   0  0  0  0  0  0  0  0  0  0  0  0
    0.7500   -1.2990    0.0000 C   0  0  0  0  0  0  0  0  0  0  0  0
    1.5000   -2.5981    0.0000 C   0  0  0  0  0  0  0  0  0  0  0  0
   -0.7500   -1.2990    0.0000 N   0  0  0  0  0  0  0  0  0  0  0  0
   -1.5000    0.0000    0.0000 C   0  0  0  0  0  0  0  0  0  0  0  0
   -0.7500    1.2990    0.0000 C   0  0  0  0  0  0  0  0  0  0  0  0
    0.7500    1.2990    0.0000 C   0  0  0  0  0  0  0  0  0  0  0  0
    1.5000    2.5981    0.0000 C   0  0  0  0  0  0  0  0  0  0  0  0
    3.0000    2.5981    0.0000 C   0  0  0  0  0  0  0  0  0  0  0  0
    3.7500    3.8971    0.0000 C   0  0  0  0  0  0  0  0  0  0  0  0
    3.0000    5.1962    0.0000 C   0  0  0  0  0  0  0  0  0  0  0  0
    1.5000    5.1962    0.0000 C   0  0  0  0  0  0  0  0  0  0  0  0
    0.7500    3.8971    0.0000 C   0  0  0  0  0  0  0  0  0  0  0  0
    0.7500    6.4952    0.0000 N   0  0  0  0  0  4  0  0  0  0  0  0
   -0.7500    6.4952    0.0000 O   0  0  0  0  0  0  0  0  0  0  0  0
    1.5000    7.7942    0.0000 O   0  0  0  0  0  1  0  0  0  0  0  0
   -1.5000    2.5981    0.0000 C   0  0  0  0  0  0  0  0  0  0  0  0
   -0.7500    3.8971    0.0000 O   0  0  0  0  0  0  0  0  0  0  0  0
   -3.0000    2.5981    0.0000 O   0  0  0  0  0  0  0  0  0  0  0  0
   -3.7500    3.8971    0.0000 C   0  0  0  0  0  0  0  0  0  0  0  0
   -5.2500    3.8971    0.0000 C   0  0  0  0  0  0  0  0  0  0  0  0
   -6.0000    5.1962    0.0000 N   0  0  0  0  0  0  0  0  0  0  0  0
   -7.5000    5.1962    0.0000 C   0  0  0  0  0  0  0  0  0  0  0  0
   -5.2500    6.4952    0.0000 C   0  0  0  0  0  0  0  0  0  0  0  0
   -6.0000    7.7942    0.0000 C   0  0  0  0  0  0  0  0  0  0  0  0
   -5.2500    9.0933    0.0000 C   0  0  0  0  0  0  0  0  0  0  0  0
   -6.0000   10.3923    0.0000 C   0  0  0  0  0  0  0  0  0  0  0  0
   -7.5000   10.3923    0.0000 C   0  0  0  0  0  0  0  0  0  0  0  0
   -8.2500    9.0933    0.0000 C   0  0  0  0  0  0  0  0  0  0  0  0
   -7.5000    7.7942    0.0000 C   0  0  0  0  0  0  0  0  0  0  0  0
   -3.0000    0.0000    0.0000 C   0  0  0  0  0  0  0  0  0  0  0  0
  2  3  1  0
  3  4  1  0
  4  5  2  0
  4  6  1  0
  6  7  2  0
  7  8  1  0
  7  9  1  0
  9 10  1  0
 10 11  2  0
 11 12  1  0
 12 13  1  0
 13 14  2  0
 14 15  1  0
 15 16  2  0
 16 17  1  0
 17 18  2  0
 17 19  1  0
 19 20  2  0
 19 21  1  0
 11 22  1  0
 22 23  2  0
 22 24  1  0
 24 25  1  0
 25 26  1  0
 26 27  1  0
 27 28  1  0
 27 29  1  0
 29 30  1  0
 30 31  2  0
 31 32  1  0
 32 33  2  0
 33 34  1  0
 34 35  2  0
 10 36  1  0
 12  6  1  0
 18 13  1  0
 35 30  1  0
M  CHG  2  19   1  21  -1
M  END
$$$$
78902
     RDKit          2D

 18 18  0  0  0  0  0  0  0  0999 V2000
    6.2500    0.0000    0.0000 Cl  0  0  0  0  0  0  0  0  0  0  0  0
    5.2500   -3.8971    0.0000 C   0  0  0  0  0  0  0  0  0  0  0  0
    3.7500   -3.8971    0.0000 O   0  0  0  0  0  0  0  0  0  0  0  0
    3.0000   -2.5981    0.0000 C   0  0  0  0  0  0  0  0  0  0  0  0
    3.7500   -1.2990    0.0000 O   0  0  0  0  0  0  0  0  0  0  0  0
    1.5000   -2.5981    0.0000 C   0  0  0  0  0  0  0  0  0  0  0  0
    0.7500   -1.2990    0.0000 C   0  0  0  0  0  0  0  0  0  0  0  0
    1.5000    0.0000    0.0000 C   0  0  0  0  0  0  0  0  0  0  0  0
    0.7500    1.2990    0.0000 C   0  0  0  0  0  0  0  0  0  0  0  0
   -0.7500    1.2990    0.0000 C   0  0  0  0  0  0  0  0  0  0  0  0
   -1.5000    0.0000    0.0000 C   0  0  0  0  0  0  0  0  0  0  0  0
   -0.7500   -1.2990    0.0000 N   0  0  0  0  0  0  0  0  0  0  0  0
    0.7500   -3.8971    0.0000 C   0  0  0  0  0  0  0  0  0  0  0  0
   -0.7500   -3.8971    0.0000 C   0  0  0  0  0  0  0  0  0  0  0  0
   -1.5000   -5.1962    0.0000 C   0  0  0  0  0  0  0  0  0  0  0  0
   -0.7500   -6.4952    0.0000 C   0  0  0  0  0  0  0  0  0  0  0  0
    0.7500   -6.4952    0.0000 C   0  0  0  0  0  0  0  0  0  0  0  0
    1.5000   -5.1962    0.0000 C   0  0  0  0  0  0  0  0  0  0  0  0
  2  3  1  0
  3  4  1  0
  4  5  2  0
  6  4  1  6
  6  7  1  0
  7  8  1  6
  8  9  1  0
  9 10  1  0
 10 11  1  0
 11 12  1  0
  6 13  1  0
 13 14  2  0
 14 15  1  0
 15 16  2  0
 16 17  1  0
 17 18  2  0
 12  7  1  0
 18 13  1  0
M  END
$$$$
674686
     RDKit          2D

 30 33  0  0  0  0  0  0  0  0999 V2000
    5.6027    0.0000    0.0000 Cl  0  0  0  0  0  0  0  0  0  0  0  0
    3.7500    1.2990    0.0000 C   0  0  0  0  0  0  0  0  0  0  0  0
    3.0000    0.0000    0.0000 O   0  0  0  0  0  0  0  0  0  0  0  0
    1.5000    0.0000    0.0000 C   0  0  0  0  0  0  0  0  0  0  0  0
    0.7500   -1.2990    0.0000 C   0  0  0  0  0  0  0  0  0  0  0  0
    1.5000   -2.5981    0.0000 N   0  0  0  0  0  0  0  0  0  0  0  0
    0.8899   -3.9684    0.0000 C   0  0  0  0  0  0  0  0  0  0  0  0
    2.0046   -4.9721    0.0000 C   0  0  0  0  0  0  0  0  0  0  0  0
    2.0046   -6.4721    0.0000 C   0  0  0  0  0  0  0  0  0  0  0  0
    3.3037   -7.2221    0.0000 C   0  0  0  0  0  0  0  0  0  0  0  0
    4.6027   -6.4721    0.0000 C   0  0  0  0  0  0  0  0  0  0  0  0
    4.6027   -4.9721    0.0000 N   0  0  0  0  0  0  0  0  0  0  0  0
    3.3037   -4.2221    0.0000 C   0  0  0  0  0  0  0  0  0  0  0  0
    2.9918   -2.7549    0.0000 C   0  0  0  0  0  0  0  0  0  0  0  0
   -0.7500   -1.2990    0.0000 C   0  0  0  0  0  0  0  0  0  0  0  0
   -1.5000   -2.5981    0.0000 F   0  0  0  0  0  0  0  0  0  0  0  0
   -1.5000    0.0000    0.0000 C   0  0  0  0  0  0  0  0  0  0  0  0
   -0.7500    1.2990    0.0000 C   0  0  0  0  0  0  0  0  0  0  0  0
   -1.5000    2.5981    0.0000 C   0  0  0  0  0  0  0  0  0  0  0  0
   -3.0000    2.5981    0.0000 O   0  0  0  0  0  0  0  0  0  0  0  0
   -0.7500    3.8971    0.0000 C   0  0  0  0  0  0  0  0  0  0  0  0
    0.7500    3.8971    0.0000 C   0  0  0  0  0  0  0  0  0  0  0  0
    1.5000    2.5981    0.0000 N   0  0  0  0  0  0  0  0  0  0  0  0
    3.0000    2.5981    0.0000 C   0  0  0  0  0  0  0  0  0  0  0  0
    4.2990    3.3481    0.0000 C   0  0  0  0  0  0  0  0  0  0  0  0
    4.2990    1.8481    0.0000 C   0  0  0  0  0  0  0  0  0  0  0  0
    0.7500    1.2990    0.0000 C   0  0  0  0  0  0  0  0  0  0  0  0
   -1.5000    5.1962    0.0000 C   0  0  0  0  0  0  0  0  0  0  0  0
   -3.0000    5.1962    0.0000 O   0  0  0  0  0  0  0  0  0  0  0  0
   -0.7500    6.4952    0.0000 O   0  0  0  0  0  0  0  0  0  0  0  0
  2  3  1  0
  3  4  1  0
  4  5  2  0
  5  6  1  0
  6  7  1  0
  8  7  1  1
  8  9  1  0
  9 10  1  0
 10 11  1  0
 11 12  1  0
 12 13  1  0
 13 14  1  1
  5 15  1  0
 15 16  1  0
 15 17  2  0
 17 18  1  0
 18 19  1  0
 19 20  2  0
 19 21  1  0
 21 22  2  0
 22 23  1  0
 23 24  1  0
 24 25  1  0
 25 26  1  0
 23 27  1  0
 21 28  1  0
 28 29  2  0
 28 30  1  0
 27  4  1  0
 14  6  1  0
 13  8  1  0
 27 18  2  0
 26 24  1  0
M  END
$$$$
674838
     RDKit          2D

 29 29  0  0  0  0  0  0  0  0999 V2000
    0.0000    4.8971    0.0000 Cl  0  0  0  0  0  0  0  0  0  0  0  0
    3.7500   -1.2990    0.0000 C   0  0  0  0  0  0  0  0  0  0  0  0
    3.0000    0.0000    0.0000 O   0  0  0  0  0  0  0  0  0  0  0  0
    1.5000    0.0000    0.0000 C   0  0  0  0  0  0  0  0  0  0  0  0
    0.7500   -1.2990    0.0000 C   0  0  0  0  0  0  0  0  0  0  0  0
   -0.7500   -1.2990    0.0000 C   0  0  0  0  0  0  0  0  0  0  0  0
   -1.5000    0.0000    0.0000 C   0  0  0  0  0  0  0  0  0  0  0  0
   -0.7500    1.2990    0.0000 C   0  0  0  0  0  0  0  0  0  0  0  0
   -1.5000    2.5981    0.0000 O   0  0  0  0  0  0  0  0  0  0  0  0
   -0.7500    3.8971    0.0000 C   0  0  0  0  0  0  0  0  0  0  0  0
    0.7500    1.2990    0.0000 C   0  0  0  0  0  0  0  0  0  0  0  0
    1.5000    2.5981    0.0000 O   0  0  0  0  0  0  0  0  0  0  0  0
    3.0000    2.5981    0.0000 C   0  0  0  0  0  0  0  0  0  0  0  0
   -1.5000   -2.5981    0.0000 C   0  0  0  0  0  0  0  0  0  0  0  0
   -0.7500   -3.8971    0.0000 O   0  0  0  0  0  0  0  0  0  0  0  0
   -3.0000   -2.5981    0.0000 N   0  0  0  0  0  0  0  0  0  0  0  0
   -3.7500   -3.8971    0.0000 C   0  0  0  0  0  0  0  0  0  0  0  0
   -5.2500   -3.8971    0.0000 C   0  0  0  0  0  0  0  0  0  0  0  0
   -6.0000   -2.5981    0.0000 C   0  0  0  0  0  0  0  0  0  0  0  0
   -7.5000   -2.5981    0.0000 C   0  0  0  0  0  0  0  0  0  0  0  0
   -8.2500   -3.8971    0.0000 C   0  0  0  0  0  0  0  0  0  0  0  0
   -9.7500   -3.8971    0.0000 O   0  0  0  0  0  0  0  0  0  0  0  0
  -10.5000   -2.5981    0.0000 C   0  0  0  0  0  0  0  0  0  0  0  0
  -12.0000   -2.5981    0.0000 C   0  0  0  0  0  0  0  0  0  0  0  0
  -12.7500   -1.2990    0.0000 N   0  0  0  0  0  0  0  0  0  0  0  0
  -14.2500   -1.2990    0.0000 C   0  0  0  0  0  0  0  0  0  0  0  0
  -12.0000    0.0000    0.0000 C   0  0  0  0  0  0  0  0  0  0  0  0
   -7.5000   -5.1962    0.0000 C   0  0  0  0  0  0  0  0  0  0  0  0
   -6.0000   -5.1962    0.0000 C   0  0  0  0  0  0  0  0  0  0  0  0
  2  3  1  0
  3  4  1  0
  4  5  2  0
  5  6  1  0
  6  7  2  0
  7  8  1  0
  8  9  1  0
  9 10  1  0
  8 11  2  0
 11 12  1  0
 12 13  1  0
  6 14  1  0
 14 15  2  0
 14 16  1  0
 16 17  1  0
 17 18  1  0
 18 19  2  0
 19 20  1  0
 20 21  2  0
 21 22  1  0
 22 23  1  0
 23 24  1  0
 24 25  1  0
 25 26  1  0
 25 27  1  0
 21 28  1  0
 28 29  2  0
 11  4  1  0
 29 18  1  0
M  END
$$$$
675031
     RDKit          2D

 22 22  0  0  0  0  0  0  0  0999 V2000
    0.0000    4.8971    0.0000 Cl  0  0  0  0  0  0  0  0  0  0  0  0
    3.7500   -1.2990    0.0000 C   0  0  0  0  0  0  0  0  0  0  0  0
    3.0000    0.0000    0.0000 O   0  0  0  0  0  0  0  0  0  0  0  0
    1.5000    0.0000    0.0000 C   0  0  0  0  0  0  0  0  0  0  0  0
    0.7500   -1.2990    0.0000 C   0  0  0  0  0  0  0  0  0  0  0  0
   -0.7500   -1.2990    0.0000 C   0  0  0  0  0  0  0  0  0  0  0  0
   -1.5000   -2.5981    0.0000 C   0  0  0  0  0  0  0  0  0  0  0  0
   -3.0000   -2.5981    0.0000 C   0  0  0  0  0  0  0  0  0  0  0  0
   -3.7500   -1.2990    0.0000 C   0  0  0  0  0  0  0  0  0  0  0  0
   -5.2500   -1.2990    0.0000 N   0  0  0  0  0  0  0  0  0  0  0  0
   -6.0000   -2.5981    0.0000 C   0  0  0  0  0  0  0  0  0  0  0  0
   -7.5000   -2.5981    0.0000 N   0  0  0  0  0  0  0  0  0  0  0  0
   -5.2500   -3.8971    0.0000 N   0  0  0  0  0  0  0  0  0  0  0  0
   -3.7500   -3.8971    0.0000 C   0  0  0  0  0  0  0  0  0  0  0  0
   -3.0000   -5.1962    0.0000 N   0  0  0  0  0  0  0  0  0  0  0  0
   -1.5000    0.0000    0.0000 C   0  0  0  0  0  0  0  0  0  0  0  0
   -0.7500    1.2990    0.0000 C   0  0  0  0  0  0  0  0  0  0  0  0
   -1.5000    2.5981    0.0000 O   0  0  0  0  0  0  0  0  0  0  0  0
   -0.7500    3.8971    0.0000 C   0  0  0  0  0  0  0  0  0  0  0  0
    0.7500    1.2990    0.0000 C   0  0  0  0  0  0  0  0  0  0  0  0
    1.5000    2.5981    0.0000 O   0  0  0  0  0  0  0  0  0  0  0  0
    3.0000    2.5981    0.0000 C   0  0  0  0  0  0  0  0  0  0  0  0
  2  3  1  0
  3  4  1  0
  4  5  2  0
  5  6  1  0
  6  7  1  0
  7  8  1  0
  8  9  2  0
  9 10  1  0
 10 11  2  0
 11 12  1  0
 11 13  1  0
 13 14  2  0
 14 15  1  0
  6 16  2  0
 16 17  1  0
 17 18  1  0
 18 19  1  0
 17 20  2  0
 20 21  1  0
 21 22  1  0
 20  4  1  0
 14  8  1  0
M  END
$$$$
508667
     RDKit          2D

 29 31  0  0  0  0  0  0  0  0999 V2000
    0.0000    5.9463    0.0000 Cl  0  0  0  0  0  0  0  0  0  0  0  0
    3.7500   -1.2990    0.0000 C   0  0  0  0  0  0  0  0  0  0  0  0
    3.0000    0.0000    0.0000 O   0  0  0  0  0  0  0  0  0  0  0  0
    1.5000    0.0000    0.0000 C   0  0  0  0  0  0  0  0  0  0  0  0
    0.7500   -1.2990    0.0000 C   0  0  0  0  0  0  0  0  0  0  0  0
   -0.7500   -1.2990    0.0000 C   0  0  0  0  0  0  0  0  0  0  0  0
   -1.7537   -2.4138    0.0000 C   0  0  0  0  0  0  0  0  0  0  0  0
   -3.1240   -1.8037    0.0000 C   0  0  0  0  0  0  0  0  0  0  0  0
   -4.4231   -2.5537    0.0000 C   0  0  0  0  0  0  0  0  0  0  0  0
   -5.7221   -1.8037    0.0000 C   0  0  0  0  0  0  0  0  0  0  0  0
   -5.7221   -0.3037    0.0000 C   0  0  0  0  0  0  0  0  0  0  0  0
   -7.0211    0.4463    0.0000 C   0  0  0  0  0  0  0  0  0  0  0  0
   -8.3202   -0.3037    0.0000 N   0  0  0  0  0  0  0  0  0  0  0  0
   -9.6192    0.4463    0.0000 C   0  0  0  0  0  0  0  0  0  0  0  0
   -9.6192    1.9463    0.0000 C   0  0  0  0  0  0  0  0  0  0  0  0
   -8.3202    2.6963    0.0000 C   0  0  0  0  0  0  0  0  0  0  0  0
   -8.3202    4.1963    0.0000 C   0  0  0  0  0  0  0  0  0  0  0  0
   -9.6192    4.9463    0.0000 C   0  0  0  0  0  0  0  0  0  0  0  0
  -10.9182    4.1963    0.0000 C   0  0  0  0  0  0  0  0  0  0  0  0
  -10.9182    2.6963    0.0000 C   0  0  0  0  0  0  0  0  0  0  0  0
   -8.3202   -1.8037    0.0000 C   0  0  0  0  0  0  0  0  0  0  0  0
   -7.0211   -2.5537    0.0000 C   0  0  0  0  0  0  0  0  0  0  0  0
   -2.9672   -0.3119    0.0000 C   0  0  0  0  0  0  0  0  0  0  0  0
   -4.0819    0.6918    0.0000 O   0  0  0  0  0  0  0  0  0  0  0  0
   -1.5000    0.0000    0.0000 C   0  0  0  0  0  0  0  0  0  0  0  0
   -0.7500    1.2990    0.0000 C   0  0  0  0  0  0  0  0  0  0  0  0
    0.7500    1.2990    0.0000 C   0  0  0  0  0  0  0  0  0  0  0  0
    1.5000    2.5981    0.0000 O   0  0  0  0  0  0  0  0  0  0  0  0
    0.7500    3.8971    0.0000 C   0  0  0  0  0  0  0  0  0  0  0  0
  2  3  1  0
  3  4  1  0
  4  5  2  0
  5  6  1  0
  6  7  1  0
  7  8  1  0
  8  9  1  0
  9 10  1  0
 10 11  1  0
 11 12  1  0
 12 13  1  0
 13 14  1  0
 14 15  1  0
 15 16  2  0
 16 17  1  0
 17 18  2  0
 18 19  1  0
 19 20  2  0
 13 21  1  0
 21 22  1  0
  8 23  1  0
 23 24  2  0
 23 25  1  0
 25 26  1  0
 26 27  2  0
 27 28  1  0
 28 29  1  0
 27  4  1  0
 25  6  2  0
 22 10  1  0
 20 15  1  0
M  END
$$$$
1417028
     RDKit          2D

 35 37  0  0  0  0  0  0  0  0999 V2000
    7.1301    0.0000    0.0000 Cl  0  0  0  0  0  0  0  0  0  0  0  0
    4.1385    4.6502    0.0000 C   0  0  0  0  0  0  0  0  0  0  0  0
    2.6761    4.9840    0.0000 O   0  0  0  0  0  0  0  0  0  0  0  0
    1.6559    3.8844    0.0000 C   0  0  0  0  0  0  0  0  0  0  0  0
    2.0980    2.4510    0.0000 C   0  0  0  0  0  0  0  0  0  0  0  0
    1.0777    1.3515    0.0000 C   0  0  0  0  0  0  0  0  0  0  0  0
    1.7286    0.0000    0.0000 C   0  0  0  0  0  0  0  0  0  0  0  0
    1.0777   -1.3515    0.0000 C   0  0  0  0  0  0  0  0  0  0  0  0
   -0.3846   -1.6852    0.0000 N   0  0  0  0  0  0  0  0  0  0  0  0
   -0.7184   -3.1476    0.0000 C   0  0  0  0  0  0  0  0  0  0  0  0
    0.3812   -4.1679    0.0000 C   0  0  0  0  0  0  0  0  0  0  0  0
    0.0474   -5.6303    0.0000 C   0  0  0  0  0  0  0  0  0  0  0  0
    1.1469   -6.6505    0.0000 N   0  0  0  0  0  0  0  0  0  0  0  0
    0.8132   -8.1129    0.0000 C   0  0  0  0  0  0  0  0  0  0  0  0
    2.5803   -6.2084    0.0000 C   0  0  0  0  0  0  0  0  0  0  0  0
    3.6799   -7.2287    0.0000 C   0  0  0  0  0  0  0  0  0  0  0  0
    5.1788   -7.1726    0.0000 C   0  0  0  0  0  0  0  0  0  0  0  0
    5.2349   -8.6715    0.0000 C   0  0  0  0  0  0  0  0  0  0  0  0
    6.0330   -9.9416    0.0000 C   0  0  0  0  0  0  0  0  0  0  0  0
    5.3321  -11.2678    0.0000 C   0  0  0  0  0  0  0  0  0  0  0  0
    6.1301  -12.5379    0.0000 O   0  0  0  0  0  0  0  0  0  0  0  0
    5.4292  -13.8640    0.0000 C   0  0  0  0  0  0  0  0  0  0  0  0
    3.8331  -11.3239    0.0000 C   0  0  0  0  0  0  0  0  0  0  0  0
    3.1322  -12.6500    0.0000 O   0  0  0  0  0  0  0  0  0  0  0  0
    1.6333  -12.7061    0.0000 C   0  0  0  0  0  0  0  0  0  0  0  0
    3.0351  -10.0538    0.0000 C   0  0  0  0  0  0  0  0  0  0  0  0
    3.7360   -8.7276    0.0000 C   0  0  0  0  0  0  0  0  0  0  0  0
   -1.5574   -0.7500    0.0000 C   0  0  0  0  0  0  0  0  0  0  0  0
   -2.9088   -1.4008    0.0000 O   0  0  0  0  0  0  0  0  0  0  0  0
   -1.5574    0.7500    0.0000 C   0  0  0  0  0  0  0  0  0  0  0  0
   -0.3846    1.6852    0.0000 C   0  0  0  0  0  0  0  0  0  0  0  0
   -0.8268    3.1186    0.0000 C   0  0  0  0  0  0  0  0  0  0  0  0
    0.1935    4.2182    0.0000 C   0  0  0  0  0  0  0  0  0  0  0  0
   -0.2487    5.6515    0.0000 O   0  0  0  0  0  0  0  0  0  0  0  0
   -1.7110    5.9853    0.0000 C   0  0  0  0  0  0  0  0  0  0  0  0
  2  3  1  0
  3  4  1  0
  4  5  2  0
  5  6  1  0
  6  7  1  0
  7  8  1  0
  8  9  1  0
  9 10  1  0
 10 11  1  0
 11 12  1  0
 12 13  1  0
 13 14  1  0
 13 15  1  0
 16 15  1  1
 16 17  1  0
 17 18  1  0
 18 19  2  0
 19 20  1  0
 20 21  1  0
 21 22  1  0
 20 23  2  0
 23 24  1  0
 24 25  1  0
 23 26  1  0
 26 27  2  0
  9 28  1  0
 28 29  2  0
 28 30  1  0
 30 31  1  0
 31 32  1  0
 32 33  2  0
 33 34  1  0
 34 35  1  0
 33  4  1  0
 31  6  2  0
 27 16  1  0
 27 18  1  0
M  END
$$$$
553490
     RDKit          2D

 29 30  0  0  0  0  0  0  0  0999 V2000
    4.7500    0.0000    0.0000 Cl  0  0  0  0  0  0  0  0  0  0  0  0
    3.7500   -1.2990    0.0000 C   0  0  0  0  0  0  0  0  0  0  0  0
    3.0000    0.0000    0.0000 O   0  0  0  0  0  0  0  0  0  0  0  0
    1.5000    0.0000    0.0000 C   0  0  0  0  0  0  0  0  0  0  0  0
    0.7500   -1.2990    0.0000 C   0  0  0  0  0  0  0  0  0  0  0  0
   -0.7500   -1.2990    0.0000 C   0  0  0  0  0  0  0  0  0  0  0  0
   -1.5000   -2.5981    0.0000 N   0  0  0  0  0  0  0  0  0  0  0  0
   -3.0000   -2.5981    0.0000 C   0  0  0  0  0  0  0  0  0  0  0  0
   -3.7500   -1.2990    0.0000 N   0  0  0  0  0  0  0  0  0  0  0  0
   -3.0000    0.0000    0.0000 C   0  0  0  0  0  0  0  0  0  0  0  0
   -3.7500    1.2990    0.0000 N   0  0  0  0  0  0  0  0  0  0  0  0
   -1.5000    0.0000    0.0000 C   0  0  0  0  0  0  0  0  0  0  0  0
   -0.7500    1.2990    0.0000 C   0  0  0  0  0  0  0  0  0  0  0  0
    0.7500    1.2990    0.0000 C   0  0  0  0  0  0  0  0  0  0  0  0
    1.5000    2.5981    0.0000 O   0  0  0  0  0  0  0  0  0  0  0  0
    3.0000    2.5981    0.0000 C   0  0  0  0  0  0  0  0  0  0  0  0
   -3.7500   -3.8971    0.0000 N   0  0  0  0  0  0  0  0  0  0  0  0
   -5.2500   -3.8971    0.0000 C   0  0  0  0  0  0  0  0  0  0  0  0
   -3.0000   -5.1962    0.0000 C   0  0  0  0  0  0  0  0  0  0  0  0
   -3.7500   -6.4952    0.0000 C   0  0  0  0  0  0  0  0  0  0  0  0
   -3.0000   -7.7942    0.0000 C   0  0  0  0  0  0  0  0  0  0  0  0
   -3.7500   -9.0933    0.0000 N   0  0  0  0  0  0  0  0  0  0  0  0
   -3.0000  -10.3923    0.0000 C   0  0  0  0  0  0  0  0  0  0  0  0
   -1.5000  -10.3923    0.0000 O   0  0  0  0  0  0  0  0  0  0  0  0
   -3.7500  -11.6913    0.0000 C   0  0  0  0  0  0  0  0  0  0  0  0
   -3.1399  -13.0617    0.0000 C   0  0  0  0  0  0  0  0  0  0  0  0
   -4.2546  -14.0654    0.0000 C   0  0  0  0  0  0  0  0  0  0  0  0
   -5.5537  -13.3154    0.0000 C   0  0  0  0  0  0  0  0  0  0  0  0
   -5.2418  -11.8481    0.0000 O   0  0  0  0  0  0  0  0  0  0  0  0
  2  3  1  0
  3  4  1  0
  4  5  2  0
  5  6  1  0
  6  7  2  0
  7  8  1  0
  8  9  2  0
  9 10  1  0
 10 11  1  0
 10 12  2  0
 12 13  1  0
 13 14  2  0
 14 15  1  0
 15 16  1  0
  8 17  1  0
 17 18  1  0
 17 19  1  0
 19 20  1  0
 20 21  1  0
 21 22  1  0
 22 23  1  0
 23 24  2  0
 23 25  1  0
 25 26  1  0
 26 27  1  0
 27 28  1  0
 28 29  1  0
 14  4  1  0
 12  6  1  0
 29 25  1  0
M  END
$$$$
444191
     RDKit          2D

 29 31  0  0  0  0  0  0  0  0999 V2000
    0.0000    3.5981    0.0000 Cl  0  0  0  0  0  0  0  0  0  0  0  0
    3.7500   -1.2990    0.0000 C   0  0  0  0  0  0  0  0  0  0  0  0
    3.0000    0.0000    0.0000 O   0  0  0  0  0  0  0  0  0  0  0  0
    1.5000    0.0000    0.0000 C   0  0  0  0  0  0  0  0  0  0  0  0
    0.7500   -1.2990    0.0000 C   0  0  0  0  0  0  0  0  0  0  0  0
   -0.7500   -1.2990    0.0000 C   0  0  0  0  0  0  0  0  0  0  0  0
   -1.5000   -2.5981    0.0000 N   0  0  0  0  0  0  0  0  0  0  0  0
   -3.0000   -2.5981    0.0000 C   0  0  0  0  0  0  0  0  0  0  0  0
   -3.7500   -1.2990    0.0000 N   0  0  0  0  0  0  0  0  0  0  0  0
   -3.0000    0.0000    0.0000 C   0  0  0  0  0  0  0  0  0  0  0  0
   -3.7500    1.2990    0.0000 N   0  0  0  0  0  0  0  0  0  0  0  0
   -1.5000    0.0000    0.0000 C   0  0  0  0  0  0  0  0  0  0  0  0
   -0.7500    1.2990    0.0000 C   0  0  0  0  0  0  0  0  0  0  0  0
    0.7500    1.2990    0.0000 C   0  0  0  0  0  0  0  0  0  0  0  0
    1.5000    2.5981    0.0000 O   0  0  0  0  0  0  0  0  0  0  0  0
    3.0000    2.5981    0.0000 C   0  0  0  0  0  0  0  0  0  0  0  0
   -3.7500   -3.8971    0.0000 N   0  0  0  0  0  0  0  0  0  0  0  0
   -5.2500   -3.8971    0.0000 C   0  0  0  0  0  0  0  0  0  0  0  0
   -6.0000   -5.1962    0.0000 C   0  0  0  0  0  0  0  0  0  0  0  0
   -5.2500   -6.4952    0.0000 N   0  0  0  0  0  0  0  0  0  0  0  0
   -3.7500   -6.4952    0.0000 C   0  0  0  0  0  0  0  0  0  0  0  0
   -3.0000   -5.1962    0.0000 C   0  0  0  0  0  0  0  0  0  0  0  0
   -6.0000   -7.7942    0.0000 C   0  0  0  0  0  0  0  0  0  0  0  0
   -5.2500   -9.0933    0.0000 O   0  0  0  0  0  0  0  0  0  0  0  0
   -7.5000   -7.7942    0.0000 C   0  0  0  0  0  0  0  0  0  0  0  0
   -8.3817   -9.0078    0.0000 O   0  0  0  0  0  0  0  0  0  0  0  0
   -9.8083   -8.5442    0.0000 C   0  0  0  0  0  0  0  0  0  0  0  0
   -9.8083   -7.0442    0.0000 C   0  0  0  0  0  0  0  0  0  0  0  0
   -8.3817   -6.5807    0.0000 C   0  0  0  0  0  0  0  0  0  0  0  0
  2  3  1  0
  3  4  1  0
  4  5  2  0
  5  6  1  0
  6  7  2  0
  7  8  1  0
  8  9  2  0
  9 10  1  0
 10 11  1  0
 10 12  2  0
 12 13  1  0
 13 14  2  0
 14 15  1  0
 15 16  1  0
  8 17  1  0
 17 18  1  0
 18 19  1  0
 19 20  1  0
 20 21  1  0
 21 22  1  0
 20 23  1  0
 23 24  2  0
 23 25  1  0
 25 26  1  0
 26 27  1  0
 27 28  2  0
 28 29  1  0
 14  4  1  0
 12  6  1  0
 22 17  1  0
 29 25  2  0
M  END
$$$$
675017
     RDKit          2D

 21 21  0  0  0  0  0  0  0  0999 V2000
    0.0000    3.5981    0.0000 Cl  0  0  0  0  0  0  0  0  0  0  0  0
    3.7500   -1.2990    0.0000 C   0  0  0  0  0  0  0  0  0  0  0  0
    3.0000    0.0000    0.0000 O   0  0  0  0  0  0  0  0  0  0  0  0
    1.5000    0.0000    0.0000 C   0  0  0  0  0  0  0  0  0  0  0  0
    0.7500   -1.2990    0.0000 C   0  0  0  0  0  0  0  0  0  0  0  0
   -0.7500   -1.2990    0.0000 C   0  0  0  0  0  0  0  0  0  0  0  0
   -1.5000    0.0000    0.0000 C   0  0  0  0  0  0  0  0  0  0  0  0
   -0.7500    1.2990    0.0000 C   0  0  0  0  0  0  0  0  0  0  0  0
    0.7500    1.2990    0.0000 C   0  0  0  0  0  0  0  0  0  0  0  0
   -3.0000    0.0000    0.0000 C   0  0  0  0  0  0  0  0  0  0  0  0
   -3.7500    1.2990    0.0000 C   0  0  0  0  0  0  0  0  0  0  0  0
   -5.2500    1.2990    0.0000 N   0  0  0  0  0  0  0  0  0  0  0  0
   -6.0000    2.5981    0.0000 C   0  0  0  0  0  0  0  0  0  0  0  0
   -6.0000    0.0000    0.0000 C   0  0  0  0  0  0  0  0  0  0  0  0
   -3.7500   -1.2990    0.0000 C   0  0  0  0  0  0  0  0  0  0  0  0
   -2.3405   -1.8121    0.0000 O   0  0  0  0  0  0  0  0  0  0  0  0
   -4.8991   -0.3349    0.0000 C   0  0  0  0  0  0  0  0  0  0  0  0
   -6.3086   -0.8479    0.0000 C   0  0  0  0  0  0  0  0  0  0  0  0
   -6.5691   -2.3251    0.0000 C   0  0  0  0  0  0  0  0  0  0  0  0
   -5.4200   -3.2893    0.0000 C   0  0  0  0  0  0  0  0  0  0  0  0
   -4.0105   -2.7762    0.0000 C   0  0  0  0  0  0  0  0  0  0  0  0
  2  3  1  0
  3  4  1  0
  4  5  2  0
  5  6  1  0
  6  7  2  0
  7  8  1  0
  8  9  2  0
  7 10  1  0
 10 11  1  0
 11 12  1  0
 12 13  1  0
 12 14  1  0
 10 15  1  0
 15 16  1  0
 15 17  1  0
 17 18  1  0
 18 19  1  0
 19 20  1  0
 20 21  1  0
  9  4  1  0
 21 15  1  0
M  END
$$$$
545509
     RDKit          2D

 30 31  0  0  0  0  0  0  0  0999 V2000
    0.0000    2.2990    0.0000 Cl  0  0  0  0  0  0  0  0  0  0  0  0
    5.8189   -9.1584    0.0000 C   0  0  0  0  0  0  0  0  0  0  0  0
    6.0424   -7.6751    0.0000 O   0  0  0  0  0  0  0  0  0  0  0  0
    4.8697   -6.7399    0.0000 C   0  0  0  0  0  0  0  0  0  0  0  0
    3.4734   -7.2879    0.0000 C   0  0  0  0  0  0  0  0  0  0  0  0
    2.3006   -6.3527    0.0000 C   0  0  0  0  0  0  0  0  0  0  0  0
    2.5242   -4.8694    0.0000 C   0  0  0  0  0  0  0  0  0  0  0  0
    3.9205   -4.3214    0.0000 C   0  0  0  0  0  0  0  0  0  0  0  0
    5.0933   -5.2566    0.0000 C   0  0  0  0  0  0  0  0  0  0  0  0
    1.3515   -3.9342    0.0000 C   0  0  0  0  0  0  0  0  0  0  0  0
    1.6852   -2.4718    0.0000 S   0  0  0  0  0  0  0  0  0  0  0  0
    0.7500   -1.2990    0.0000 C   0  0  0  0  0  0  0  0  0  0  0  0
    1.5000    0.0000    0.0000 C   0  0  0  0  0  0  0  0  0  0  0  0
    0.7500    1.2990    0.0000 C   0  0  0  0  0  0  0  0  0  0  0  0
   -0.7500    1.2990    0.0000 C   0  0  0  0  0  0  0  0  0  0  0  0
   -1.5000    0.0000    0.0000 C   0  0  0  0  0  0  0  0  0  0  0  0
   -0.7500   -1.2990    0.0000 C   0  0  0  0  0  0  0  0  0  0  0  0
   -1.6852   -2.4718    0.0000 N   0  0  0  0  0  0  0  0  0  0  0  0
   -3.1476   -2.1380    0.0000 C   0  0  0  0  0  0  0  0  0  0  0  0
   -3.5898   -0.7046    0.0000 C   0  0  0  0  0  0  0  0  0  0  0  0
   -5.0522   -0.3709    0.0000 N   0  0  0  0  0  0  0  0  0  0  0  0
   -5.4943    1.0625    0.0000 C   0  0  0  0  0  0  0  0  0  0  0  0
   -6.0724   -1.4704    0.0000 C   0  0  0  0  0  0  0  0  0  0  0  0
   -1.3515   -3.9342    0.0000 C   0  0  0  0  0  0  0  0  0  0  0  0
   -2.5242   -4.8694    0.0000 O   0  0  0  0  0  0  0  0  0  0  0  0
    0.0000   -4.5850    0.0000 C   0  0  0  0  0  0  0  0  0  0  0  0
    0.0000   -6.0850    0.0000 O   0  0  0  0  0  0  0  0  0  0  0  0
   -1.2990   -6.8350    0.0000 C   0  0  0  0  0  0  0  0  0  0  0  0
   -2.5981   -6.0850    0.0000 O   0  0  0  0  0  0  0  0  0  0  0  0
   -1.2990   -8.3350    0.0000 C   0  0  0  0  0  0  0  0  0  0  0  0
  2  3  1  0
  3  4  1  0
  4  5  2  0
  5  6  1  0
  6  7  2  0
  7  8  1  0
  8  9  2  0
 10  7  1  1
 10 11  1  0
 11 12  1  0
 12 13  2  0
 13 14  1  0
 14 15  2  0
 15 16  1  0
 16 17  2  0
 17 18  1  0
 18 19  1  0
 19 20  1  0
 20 21  1  0
 21 22  1  0
 21 23  1  0
 18 24  1  0
 24 25  2  0
 24 26  1  0
 26 27  1  1
 27 28  1  0
 28 29  2  0
 28 30  1  0
  9  4  1  0
 26 10  1  0
 17 12  1  0
M  END
$$$$
250508
     RDKit          2D

 34 34  0  0  0  0  0  0  0  0999 V2000
    0.0000    4.8971    0.0000 Cl  0  0  0  0  0  0  0  0  0  0  0  0
    3.7500   -1.2990    0.0000 C   0  0  0  0  0  0  0  0  0  0  0  0
    3.0000    0.0000    0.0000 O   0  0  0  0  0  0  0  0  0  0  0  0
    1.5000    0.0000    0.0000 C   0  0  0  0  0  0  0  0  0  0  0  0
    0.7500   -1.2990    0.0000 C   0  0  0  0  0  0  0  0  0  0  0  0
   -0.7500   -1.2990    0.0000 C   0  0  0  0  0  0  0  0  0  0  0  0
   -1.5000    0.0000    0.0000 C   0  0  0  0  0  0  0  0  0  0  0  0
   -3.0000    0.0000    0.0000 C   0  0  0  0  0  0  0  0  0  0  0  0
   -3.7500    1.2990    0.0000 C   0  0  0  0  0  0  0  0  0  0  0  0
   -5.2500    1.2990    0.0000 N   0  0  0  0  0  0  0  0  0  0  0  0
   -6.0000    2.5981    0.0000 C   0  0  0  0  0  0  0  0  0  0  0  0
   -6.0000    0.0000    0.0000 C   0  0  0  0  0  0  0  0  0  0  0  0
   -7.5000    0.0000    0.0000 C   0  0  0  0  0  0  0  0  0  0  0  0
   -8.2500   -1.2990    0.0000 C   0  0  0  0  0  0  0  0  0  0  0  0
   -9.7500   -1.2990    0.0000 C   0  0  0  0  0  0  0  0  0  0  0  0
   -9.7500    0.2010    0.0000 C   0  0  0  0  0  0  0  0  0  0  0  0
   -9.7500    1.7010    0.0000 N   0  0  0  0  0  0  0  0  0  0  0  0
  -11.2500   -1.2990    0.0000 C   0  0  0  0  0  0  0  0  0  0  0  0
  -12.0000    0.0000    0.0000 C   0  0  0  0  0  0  0  0  0  0  0  0
  -12.0000   -2.5981    0.0000 C   0  0  0  0  0  0  0  0  0  0  0  0
   -9.7500   -2.7990    0.0000 C   0  0  0  0  0  0  0  0  0  0  0  0
  -11.0490   -3.5490    0.0000 C   0  0  0  0  0  0  0  0  0  0  0  0
  -11.0490   -5.0490    0.0000 C   0  0  0  0  0  0  0  0  0  0  0  0
   -9.7500   -5.7990    0.0000 C   0  0  0  0  0  0  0  0  0  0  0  0
   -9.7500   -7.2990    0.0000 O   0  0  0  0  0  0  0  0  0  0  0  0
  -11.0490   -8.0490    0.0000 C   0  0  0  0  0  0  0  0  0  0  0  0
   -8.4510   -5.0490    0.0000 C   0  0  0  0  0  0  0  0  0  0  0  0
   -7.1519   -5.7990    0.0000 O   0  0  0  0  0  0  0  0  0  0  0  0
   -5.8529   -5.0490    0.0000 C   0  0  0  0  0  0  0  0  0  0  0  0
   -8.4510   -3.5490    0.0000 C   0  0  0  0  0  0  0  0  0  0  0  0
   -0.7500    1.2990    0.0000 C   0  0  0  0  0  0  0  0  0  0  0  0
    0.7500    1.2990    0.0000 C   0  0  0  0  0  0  0  0  0  0  0  0
    1.5000    2.5981    0.0000 O   0  0  0  0  0  0  0  0  0  0  0  0
    0.7500    3.8971    0.0000 C   0  0  0  0  0  0  0  0  0  0  0  0
  2  3  1  0
  3  4  1  0
  4  5  2  0
  5  6  1  0
  6  7  2  0
  7  8  1  0
  8  9  1  0
  9 10  1  0
 10 11  1  0
 10 12  1  0
 12 13  1  0
 13 14  1  0
 14 15  1  0
 15 16  1  0
 16 17  3  0
 15 18  1  0
 18 19  1  0
 18 20  1  0
 15 21  1  0
 21 22  2  0
 22 23  1  0
 23 24  2  0
 24 25  1  0
 25 26  1  0
 24 27  1  0
 27 28  1  0
 28 29  1  0
 27 30  2  0
  7 31  1  0
 31 32  2  0
 32 33  1  0
 33 34  1  0
 32  4  1  0
 30 21  1  0
M  END
$$$$
674412
     RDKit          2D

 19 18  0  0  0  0  0  0  0  0999 V2000
    4.7500    0.0000    0.0000 Cl  0  0  0  0  0  0  0  0  0  0  0  0
    3.7500   -1.2990    0.0000 C   0  0  0  0  0  0  0  0  0  0  0  0
    3.0000    0.0000    0.0000 O   0  0  0  0  0  0  0  0  0  0  0  0
    1.5000    0.0000    0.0000 C   0  0  0  0  0  0  0  0  0  0  0  0
    0.7500   -1.2990    0.0000 C   0  0  0  0  0  0  0  0  0  0  0  0
   -0.7500   -1.2990    0.0000 C   0  0  0  0  0  0  0  0  0  0  0  0
   -1.5000    0.0000    0.0000 C   0  0  0  0  0  0  0  0  0  0  0  0
   -3.0000    0.0000    0.0000 O   0  0  0  0  0  0  0  0  0  0  0  0
   -3.7500   -1.2990    0.0000 C   0  0  0  0  0  0  0  0  0  0  0  0
   -0.7500    1.2990    0.0000 C   0  0  0  0  0  0  0  0  0  0  0  0
    0.7500    1.2990    0.0000 C   0  0  0  0  0  0  0  0  0  0  0  0
   -1.5000    2.5981    0.0000 C   0  0  0  0  0  0  0  0  0  0  0  0
   -3.0000    2.5981    0.0000 O   0  0  0  0  0  0  0  0  0  0  0  0
   -0.7500    3.8971    0.0000 C   0  0  0  0  0  0  0  0  0  0  0  0
   -1.5000    5.1962    0.0000 N   0  0  0  0  0  0  0  0  0  0  0  0
   -0.7500    6.4952    0.0000 C   0  0  0  0  0  0  0  0  0  0  0  0
    0.7500    6.4952    0.0000 O   0  0  0  0  0  0  0  0  0  0  0  0
   -1.5000    7.7942    0.0000 C   0  0  0  0  0  0  0  0  0  0  0  0
   -0.7500    9.0933    0.0000 N   0  0  0  0  0  0  0  0  0  0  0  0
  2  3  1  0
  3  4  1  0
  4  5  2  0
  5  6  1  0
  6  7  2  0
  7  8  1  0
  8  9  1  0
  7 10  1  0
 10 11  2  0
 10 12  1  0
 12 13  1  0
 12 14  1  0
 14 15  1  0
 15 16  1  0
 16 17  2  0
 16 18  1  0
 18 19  1  0
 11  4  1  0
M  END
$$$$
674841
     RDKit          2D

 24 27  0  0  0  0  0  0  0  0999 V2000
    0.0000    7.4952    0.0000 Cl  0  0  0  0  0  0  0  0  0  0  0  0
    3.7500   -1.2990    0.0000 C   0  0  0  0  0  0  0  0  0  0  0  0
    3.0000    0.0000    0.0000 O   0  0  0  0  0  0  0  0  0  0  0  0
    1.5000    0.0000    0.0000 C   0  0  0  0  0  0  0  0  0  0  0  0
    0.7500   -1.2990    0.0000 C   0  0  0  0  0  0  0  0  0  0  0  0
   -0.7500   -1.2990    0.0000 C   0  0  0  0  0  0  0  0  0  0  0  0
   -1.5000    0.0000    0.0000 C   0  0  0  0  0  0  0  0  0  0  0  0
   -3.0000    0.0000    0.0000 C   0  0  0  0  0  0  0  0  0  0  0  0
   -3.7500    1.2990    0.0000 C   0  0  0  0  0  0  0  0  0  0  0  0
   -4.5000    2.5981    0.0000 N   0  0  0  0  0  0  0  0  0  0  0  0
   -6.0000    2.5981    0.0000 C   0  0  0  0  0  0  0  0  0  0  0  0
   -3.7500    3.8971    0.0000 C   0  0  0  0  0  0  0  0  0  0  0  0
   -2.2500    3.8971    0.0000 C   0  0  0  0  0  0  0  0  0  0  0  0
   -1.5000    2.5981    0.0000 C   0  0  0  0  0  0  0  0  0  0  0  0
   -0.7500    3.8971    0.0000 C   0  0  0  0  0  0  0  0  0  0  0  0
    0.6203    3.2870    0.0000 O   0  0  0  0  0  0  0  0  0  0  0  0
    0.7500    1.2990    0.0000 C   0  0  0  0  0  0  0  0  0  0  0  0
   -0.7500    1.2990    0.0000 C   0  0  0  0  0  0  0  0  0  0  0  0
   -1.0404    3.1010    0.0000 C   0  0  0  0  0  0  0  0  0  0  0  0
   -0.7500    6.4952    0.0000 O   0  0  0  0  0  0  0  0  0  0  0  0
   -1.9500    3.3775    0.0000 C   0  0  0  0  0  0  0  0  0  0  0  0
   -2.1654    2.4515    0.0000 C   0  0  0  0  0  0  0  0  0  0  0  0
   -3.0000    2.5981    0.0000 C   0  0  0  0  0  0  0  0  0  0  0  0
   -4.4554    2.9610    0.0000 O   0  0  0  0  0  0  0  0  0  0  0  0
  2  3  1  0
  3  4  1  0
  4  5  2  0
  5  6  1  0
  6  7  2  0
  7  8  1  0
  9  8  1  1
  9 10  1  0
 10 11  1  0
 10 12  1  0
 12 13  1  0
 14 13  1  1
 14 15  1  0
 15 16  1  1
 16 17  1  0
 17 18  2  0
 15 19  1  0
 19 20  2  0
 19 21  1  0
 21 22  1  0
 22 23  1  0
 23 24  1  6
 17  4  1  0
 18  7  1  0
 23  9  1  0
 18 14  1  0
 23 14  1  0
M  END
$$$$
699416
     RDKit          2D

 20 20  0  0  0  0  0  0  0  0999 V2000
    0.0000    6.5525    0.0000 Cl  0  0  0  0  0  0  0  0  0  0  0  0
    3.7500   -1.2990    0.0000 C   0  0  0  0  0  0  0  0  0  0  0  0
    3.0000    0.0000    0.0000 O   0  0  0  0  0  0  0  0  0  0  0  0
    1.5000    0.0000    0.0000 C   0  0  0  0  0  0  0  0  0  0  0  0
    0.7500   -1.2990    0.0000 C   0  0  0  0  0  0  0  0  0  0  0  0
   -0.7500   -1.2990    0.0000 C   0  0  0  0  0  0  0  0  0  0  0  0
   -1.5000    0.0000    0.0000 C   0  0  0  0  0  0  0  0  0  0  0  0
   -0.7500    1.2990    0.0000 C   0  0  0  0  0  0  0  0  0  0  0  0
    0.7500    1.2990    0.0000 C   0  0  0  0  0  0  0  0  0  0  0  0
   -1.5000    2.5981    0.0000 C   0  0  0  0  0  0  0  0  0  0  0  0
   -2.6491    1.6339    0.0000 O   0  0  0  0  0  0  0  0  0  0  0  0
   -0.0905    3.1111    0.0000 C   0  0  0  0  0  0  0  0  0  0  0  0
    0.1700    4.5883    0.0000 C   0  0  0  0  0  0  0  0  0  0  0  0
   -0.9791    5.5525    0.0000 C   0  0  0  0  0  0  0  0  0  0  0  0
   -2.3886    5.0395    0.0000 C   0  0  0  0  0  0  0  0  0  0  0  0
   -2.6491    3.5623    0.0000 C   0  0  0  0  0  0  0  0  0  0  0  0
   -4.0586    3.0492    0.0000 C   0  0  0  0  0  0  0  0  0  0  0  0
   -5.2077    4.0134    0.0000 N   0  0  0  0  0  0  0  0  0  0  0  0
   -6.6172    3.5004    0.0000 C   0  0  0  0  0  0  0  0  0  0  0  0
   -4.9472    5.4906    0.0000 C   0  0  0  0  0  0  0  0  0  0  0  0
  2  3  1  0
  3  4  1  0
  4  5  2  0
  5  6  1  0
  6  7  2  0
  7  8  1  0
  8  9  2  0
  8 10  1  0
 10 11  1  0
 10 12  1  0
 12 13  1  0
 13 14  1  0
 14 15  1  0
 15 16  1  0
 16 17  1  0
 17 18  1  0
 18 19  1  0
 18 20  1  0
  9  4  1  0
 16 10  1  0
M  END
$$$$
611647
     RDKit          2D

 30 31  0  0  0  0  0  0  0  0999 V2000
    0.0000    4.8971    0.0000 Cl  0  0  0  0  0  0  0  0  0  0  0  0
    6.0000   -7.7942    0.0000 C   0  0  0  0  0  0  0  0  0  0  0  0
    5.2500   -6.4952    0.0000 O   0  0  0  0  0  0  0  0  0  0  0  0
    3.7500   -6.4952    0.0000 C   0  0  0  0  0  0  0  0  0  0  0  0
    3.0000   -5.1962    0.0000 C   0  0  0  0  0  0  0  0  0  0  0  0
    1.5000   -5.1962    0.0000 O   0  0  0  0  0  0  0  0  0  0  0  0
    0.7500   -3.8971    0.0000 C   0  0  0  0  0  0  0  0  0  0  0  0
    1.5000   -2.5981    0.0000 C   0  0  0  0  0  0  0  0  0  0  0  0
    0.7500   -1.2990    0.0000 C   0  0  0  0  0  0  0  0  0  0  0  0
    1.5000    0.0000    0.0000 N   0  0  0  0  0  0  0  0  0  0  0  0
    0.7500    1.2990    0.0000 C   0  0  0  0  0  0  0  0  0  0  0  0
   -0.7500    1.2990    0.0000 N   0  0  0  0  0  0  0  0  0  0  0  0
   -1.5000    0.0000    0.0000 C   0  0  0  0  0  0  0  0  0  0  0  0
   -3.0000    0.0000    0.0000 N   0  0  0  0  0  0  0  0  0  0  0  0
   -3.7500    1.2990    0.0000 C   0  0  0  0  0  0  0  0  0  0  0  0
   -3.0000    2.5981    0.0000 C   0  0  0  0  0  0  0  0  0  0  0  0
   -3.7500    3.8971    0.0000 C   0  0  0  0  0  0  0  0  0  0  0  0
   -5.2500    3.8971    0.0000 C   0  0  0  0  0  0  0  0  0  0  0  0
   -6.0000    2.5981    0.0000 C   0  0  0  0  0  0  0  0  0  0  0  0
   -5.2500    1.2990    0.0000 C   0  0  0  0  0  0  0  0  0  0  0  0
   -7.5000    2.5981    0.0000 C   0  0  0  0  0  0  0  0  0  0  0  0
   -9.0000    2.5981    0.0000 C   0  0  0  0  0  0  0  0  0  0  0  0
   -0.7500   -1.2990    0.0000 C   0  0  0  0  0  0  0  0  0  0  0  0
   -1.5000   -2.5981    0.0000 C   0  0  0  0  0  0  0  0  0  0  0  0
   -0.7500   -3.8971    0.0000 C   0  0  0  0  0  0  0  0  0  0  0  0
   -1.5000   -5.1962    0.0000 O   0  0  0  0  0  0  0  0  0  0  0  0
   -3.0000   -5.1962    0.0000 C   0  0  0  0  0  0  0  0  0  0  0  0
   -3.7500   -6.4952    0.0000 C   0  0  0  0  0  0  0  0  0  0  0  0
   -5.2500   -6.4952    0.0000 O   0  0  0  0  0  0  0  0  0  0  0  0
   -6.0000   -7.7942    0.0000 C   0  0  0  0  0  0  0  0  0  0  0  0
  2  3  1  0
  3  4  1  0
  4  5  1  0
  5  6  1  0
  6  7  1  0
  7  8  2  0
  8  9  1  0
  9 10  2  0
 10 11  1  0
 11 12  2  0
 12 13  1  0
 13 14  1  0
 14 15  1  0
 15 16  2  0
 16 17  1  0
 17 18  2  0
 18 19  1  0
 19 20  2  0
 19 21  1  0
 21 22  3  0
 13 23  2  0
 23 24  1  0
 24 25  2  0
 25 26  1  0
 26 27  1  0
 27 28  1  0
 28 29  1  0
 29 30  1  0
 25  7  1  0
 23  9  1  0
 20 15  1  0
M  END
$$$$
674867
     RDKit          2D

 26 28  0  0  0  0  0  0  0  0999 V2000
    0.0000    2.2990    0.0000 Cl  0  0  0  0  0  0  0  0  0  0  0  0
   -3.0000   -7.7942    0.0000 C   0  0  0  0  0  0  0  0  0  0  0  0
   -1.5000   -7.7942    0.0000 S   0  0  0  0  0  0  0  0  0  0  0  0
   -0.7500   -6.4952    0.0000 C   0  0  0  0  0  0  0  0  0  0  0  0
    0.7500   -6.4952    0.0000 C   0  0  0  0  0  0  0  0  0  0  0  0
    1.5000   -5.1962    0.0000 C   0  0  0  0  0  0  0  0  0  0  0  0
    0.7500   -3.8971    0.0000 C   0  0  0  0  0  0  0  0  0  0  0  0
    1.5000   -2.5981    0.0000 S   0  0  0  0  0  0  0  0  0  0  0  0
    0.7500   -1.2990    0.0000 C   0  0  0  0  0  0  0  0  0  0  0  0
    1.5000    0.0000    0.0000 C   0  0  0  0  0  0  0  0  0  0  0  0
    0.7500    1.2990    0.0000 C   0  0  0  0  0  0  0  0  0  0  0  0
   -0.7500    1.2990    0.0000 C   0  0  0  0  0  0  0  0  0  0  0  0
   -1.5000    0.0000    0.0000 C   0  0  0  0  0  0  0  0  0  0  0  0
   -0.7500   -1.2990    0.0000 C   0  0  0  0  0  0  0  0  0  0  0  0
   -1.5000   -2.5981    0.0000 N   0  0  0  0  0  0  0  0  0  0  0  0
   -3.0000   -2.5981    0.0000 C   0  0  0  0  0  0  0  0  0  0  0  0
   -3.7500   -1.2990    0.0000 C   0  0  0  0  0  0  0  0  0  0  0  0
   -5.2500   -1.2990    0.0000 C   0  0  0  0  0  0  0  0  0  0  0  0
   -6.0000    0.0000    0.0000 C   0  0  0  0  0  0  0  0  0  0  0  0
   -7.5000    0.0000    0.0000 C   0  0  0  0  0  0  0  0  0  0  0  0
   -8.2500   -1.2990    0.0000 C   0  0  0  0  0  0  0  0  0  0  0  0
   -7.5000   -2.5981    0.0000 C   0  0  0  0  0  0  0  0  0  0  0  0
   -6.0000   -2.5981    0.0000 N   0  0  0  0  0  0  0  0  0  0  0  0
   -5.2500   -3.8971    0.0000 C   0  0  0  0  0  0  0  0  0  0  0  0
   -0.7500   -3.8971    0.0000 C   0  0  0  0  0  0  0  0  0  0  0  0
   -1.5000   -5.1962    0.0000 C   0  0  0  0  0  0  0  0  0  0  0  0
  2  3  1  0
  3  4  1  0
  4  5  2  0
  5  6  1  0
  6  7  2  0
  7  8  1  0
  8  9  1  0
  9 10  2  0
 10 11  1  0
 11 12  2  0
 12 13  1  0
 13 14  2  0
 14 15  1  0
 15 16  1  0
 16 17  1  0
 17 18  1  0
 18 19  1  0
 19 20  1  0
 20 21  1  0
 21 22  1  0
 22 23  1  0
 23 24  1  0
 15 25  1  0
 25 26  2  0
 26  4  1  0
 25  7  1  0
 14  9  1  0
 23 18  1  0
M  END
$$$$
1926755
     RDKit          2D

 19 19  0  0  0  0  0  0  0  0999 V2000
    0.0000    2.2990    0.0000 Cl  0  0  0  0  0  0  0  0  0  0  0  0
    1.5000   -5.1962    0.0000 C   0  0  0  0  0  0  0  0  0  0  0  0
    0.7500   -3.8971    0.0000 C   0  0  0  0  0  0  0  0  0  0  0  0
    1.5000   -2.5981    0.0000 C   0  0  0  0  0  0  0  0  0  0  0  0
    0.7500   -1.2990    0.0000 C   0  0  0  0  0  0  0  0  0  0  0  0
    1.5000    0.0000    0.0000 C   0  0  0  0  0  0  0  0  0  0  0  0
    0.7500    1.2990    0.0000 C   0  0  0  0  0  0  0  0  0  0  0  0
   -0.7500    1.2990    0.0000 C   0  0  0  0  0  0  0  0  0  0  0  0
   -1.5000    0.0000    0.0000 C   0  0  0  0  0  0  0  0  0  0  0  0
   -0.7500   -1.2990    0.0000 C   0  0  0  0  0  0  0  0  0  0  0  0
   -0.7500   -3.8971    0.0000 N   0  0  0  0  0  0  0  0  0  0  0  0
   -1.5000   -5.1962    0.0000 C   0  0  0  0  0  0  0  0  0  0  0  0
   -1.5000   -2.5981    0.0000 C   0  0  0  0  0  0  0  0  0  0  0  0
   -3.0000   -2.5981    0.0000 C   0  0  0  0  0  0  0  0  0  0  0  0
   -3.7500   -1.2990    0.0000 C   0  0  0  0  0  0  0  0  0  0  0  0
   -5.2500   -1.2990    0.0000 C   0  0  0  0  0  0  0  0  0  0  0  0
   -6.0000   -2.5981    0.0000 C   0  0  0  0  0  0  0  0  0  0  0  0
   -5.2500   -3.8971    0.0000 C   0  0  0  0  0  0  0  0  0  0  0  0
   -3.7500   -3.8971    0.0000 C   0  0  0  0  0  0  0  0  0  0  0  0
  3  2  1  6
  3  4  1  0
  4  5  1  0
  5  6  2  0
  6  7  1  0
  7  8  2  0
  8  9  1  0
  9 10  2  0
  3 11  1  0
 11 12  1  0
 11 13  1  0
 13 14  1  0
 14 15  2  0
 15 16  1  0
 16 17  2  0
 17 18  1  0
 18 19  2  0
 10  5  1  0
 19 14  1  0
M  END
$$$$
674727
     RDKit          2D

 27 28  0  0  0  0  0  0  0  0999 V2000
    0.0000    5.0981    0.0000 Cl  0  0  0  0  0  0  0  0  0  0  0  0
   -3.7500   -3.8971    0.0000 C   0  0  0  0  0  0  0  0  0  0  0  0
   -3.0000   -2.5981    0.0000 C   0  0  0  0  0  0  0  0  0  0  0  0
   -3.7500   -1.2990    0.0000 N   0  0  0  0  0  0  0  0  0  0  0  0
   -5.2500   -1.2990    0.0000 C   0  0  0  0  0  0  0  0  0  0  0  0
   -6.0000    0.0000    0.0000 C   0  0  0  0  0  0  0  0  0  0  0  0
   -7.5000    0.0000    0.0000 C   0  0  0  0  0  0  0  0  0  0  0  0
   -8.2500    1.2990    0.0000 C   0  0  0  0  0  0  0  0  0  0  0  0
   -7.5000    2.5981    0.0000 C   0  0  0  0  0  0  0  0  0  0  0  0
   -8.2500    3.8971    0.0000 C   0  0  0  0  0  0  0  0  0  0  0  0
   -9.7500    3.8971    0.0000 C   0  0  0  0  0  0  0  0  0  0  0  0
  -10.5000    2.5981    0.0000 C   0  0  0  0  0  0  0  0  0  0  0  0
   -9.7500    1.2990    0.0000 C   0  0  0  0  0  0  0  0  0  0  0  0
  -12.0000    2.5981    0.0000 C   0  0  0  0  0  0  0  0  0  0  0  0
  -13.5000    2.5981    0.0000 F   0  0  0  0  0  0  0  0  0  0  0  0
  -12.0000    4.0981    0.0000 F   0  0  0  0  0  0  0  0  0  0  0  0
  -12.0000    1.0981    0.0000 F   0  0  0  0  0  0  0  0  0  0  0  0
   -1.5000   -2.5981    0.0000 C   0  0  0  0  0  0  0  0  0  0  0  0
   -0.7500   -3.8971    0.0000 C   0  0  0  0  0  0  0  0  0  0  0  0
    0.7500   -3.8971    0.0000 C   0  0  0  0  0  0  0  0  0  0  0  0
    1.5000   -2.5981    0.0000 C   0  0  0  0  0  0  0  0  0  0  0  0
    0.7500   -1.2990    0.0000 C   0  0  0  0  0  0  0  0  0  0  0  0
    1.5000    0.0000    0.0000 C   0  0  0  0  0  0  0  0  0  0  0  0
    0.7500    1.2990    0.0000 C   0  0  0  0  0  0  0  0  0  0  0  0
   -0.7500    1.2990    0.0000 C   0  0  0  0  0  0  0  0  0  0  0  0
   -1.5000    0.0000    0.0000 C   0  0  0  0  0  0  0  0  0  0  0  0
   -0.7500   -1.2990    0.0000 C   0  0  0  0  0  0  0  0  0  0  0  0
  3  2  1  1
  3  4  1  0
  4  5  1  0
  5  6  1  0
  6  7  1  0
  7  8  1  0
  8  9  2  0
  9 10  1  0
 10 11  2  0
 11 12  1  0
 12 13  2  0
 12 14  1  0
 14 15  1  0
 14 16  1  0
 14 17  1  0
  3 18  1  0
 18 19  2  0
 19 20  1  0
 20 21  2  0
 21 22  1  0
 22 23  2  0
 23 24  1  0
 24 25  2  0
 25 26  1  0
 26 27  2  0
 13  8  1  0
 27 18  1  0
 27 22  1  0
M  END
$$$$
674855
     RDKit          2D

 15 14  0  0  0  0  0  0  0  0999 V2000
    0.0000    2.2990    0.0000 Cl  0  0  0  0  0  0  0  0  0  0  0  0
    5.2500   -1.2990    0.0000 C   0  0  0  0  0  0  0  0  0  0  0  0
    3.7500   -1.2990    0.0000 C   0  0  0  0  0  0  0  0  0  0  0  0
    3.0000    0.0000    0.0000 C   0  0  0  0  0  0  0  0  0  0  0  0
    1.5000    0.0000    0.0000 C   0  0  0  0  0  0  0  0  0  0  0  0
    0.7500   -1.2990    0.0000 C   0  0  0  0  0  0  0  0  0  0  0  0
   -0.7500   -1.2990    0.0000 C   0  0  0  0  0  0  0  0  0  0  0  0
   -1.5000    0.0000    0.0000 C   0  0  0  0  0  0  0  0  0  0  0  0
   -0.7500    1.2990    0.0000 C   0  0  0  0  0  0  0  0  0  0  0  0
    0.7500    1.2990    0.0000 C   0  0  0  0  0  0  0  0  0  0  0  0
    3.0000   -2.5981    0.0000 N   0  0  0  0  0  0  0  0  0  0  0  0
    3.7500   -3.8971    0.0000 C   0  0  0  0  0  0  0  0  0  0  0  0
    1.5000   -2.5981    0.0000 C   0  0  0  0  0  0  0  0  0  0  0  0
    0.7500   -3.8971    0.0000 C   0  0  0  0  0  0  0  0  0  0  0  0
    0.0000   -5.1962    0.0000 C   0  0  0  0  0  0  0  0  0  0  0  0
  3  2  1  1
  3  4  1  0
  4  5  1  0
  5  6  2  0
  6  7  1  0
  7  8  2  0
  8  9  1  0
  9 10  2  0
  3 11  1  0
 11 12  1  0
 11 13  1  0
 13 14  1  0
 14 15  3  0
 10  5  1  0
M  END
$$$$
675111
     RDKit          2D

 22 22  0  0  0  0  0  0  0  0999 V2000
    2.5000    0.0000    0.0000 Cl  0  0  0  0  0  0  0  0  0  0  0  0
    1.5000   -7.7942    0.0000 C   0  0  0  0  0  0  0  0  0  0  0  0
    0.7500   -6.4952    0.0000 C   0  0  0  0  0  0  0  0  0  0  0  0
    1.5000   -5.1962    0.0000 N   0  0  0  0  0  0  0  0  0  0  0  0
    0.7500   -3.8971    0.0000 C   0  0  0  0  0  0  0  0  0  0  0  0
    1.5000   -2.5981    0.0000 C   0  0  0  0  0  0  0  0  0  0  0  0
    0.7500   -1.2990    0.0000 C   0  0  0  0  0  0  0  0  0  0  0  0
    1.5000    0.0000    0.0000 C   0  0  0  0  0  0  0  0  0  0  0  0
    0.7500    1.2990    0.0000 C   0  0  0  0  0  0  0  0  0  0  0  0
   -0.7500    1.2990    0.0000 C   0  0  0  0  0  0  0  0  0  0  0  0
   -1.5000    2.5981    0.0000 O   0  0  0  0  0  0  0  0  0  0  0  0
   -1.5000    0.0000    0.0000 C   0  0  0  0  0  0  0  0  0  0  0  0
   -0.7500   -1.2990    0.0000 C   0  0  0  0  0  0  0  0  0  0  0  0
   -0.7500   -6.4952    0.0000 C   0  0  0  0  0  0  0  0  0  0  0  0
   -1.5000   -5.1962    0.0000 O   0  0  0  0  0  0  0  0  0  0  0  0
   -1.5000   -7.7942    0.0000 C   0  0  0  0  0  0  0  0  0  0  0  0
   -3.0000   -7.7942    0.0000 C   0  0  0  0  0  0  0  0  0  0  0  0
   -3.7500   -9.0933    0.0000 C   0  0  0  0  0  0  0  0  0  0  0  0
   -3.0000  -10.3923    0.0000 C   0  0  0  0  0  0  0  0  0  0  0  0
   -3.7500  -11.6913    0.0000 O   0  0  0  0  0  0  0  0  0  0  0  0
   -1.5000  -10.3923    0.0000 C   0  0  0  0  0  0  0  0  0  0  0  0
   -0.7500   -9.0933    0.0000 C   0  0  0  0  0  0  0  0  0  0  0  0
  3  2  1  1
  3  4  1  0
  4  5  1  0
  5  6  1  0
  6  7  1  0
  7  8  2  0
  8  9  1  0
  9 10  2  0
 10 11  1  0
 10 12  1  0
 12 13  2  0
  3 14  1  0
 14 15  1  1
 14 16  1  0
 16 17  2  0
 17 18  1  0
 18 19  2  0
 19 20  1  0
 19 21  1  0
 21 22  2  0
 13  7  1  0
 22 16  1  0
M  END
$$$$
1369607
     RDKit          2D

 14 14  0  0  0  0  0  0  0  0999 V2000
    4.2286    0.0000    0.0000 Cl  0  0  0  0  0  0  0  0  0  0  0  0
    3.2286   -0.0000    0.0000 C   0  0  0  0  0  0  0  0  0  0  0  0
    1.7286    0.0000    0.0000 C   0  0  0  0  0  0  0  0  0  0  0  0
    1.0777    1.3515    0.0000 C   0  0  0  0  0  0  0  0  0  0  0  0
   -0.3846    1.6852    0.0000 N   0  0  0  0  0  0  0  0  0  0  0  0
   -1.5574    0.7500    0.0000 C   0  0  0  0  0  0  0  0  0  0  0  0
   -1.5574   -0.7500    0.0000 C   0  0  0  0  0  0  0  0  0  0  0  0
   -0.3846   -1.6852    0.0000 C   0  0  0  0  0  0  0  0  0  0  0  0
   -0.8268   -3.1186    0.0000 C   0  0  0  0  0  0  0  0  0  0  0  0
    0.1935   -4.2182    0.0000 C   0  0  0  0  0  0  0  0  0  0  0  0
    1.6559   -3.8844    0.0000 C   0  0  0  0  0  0  0  0  0  0  0  0
    2.6761   -4.9840    0.0000 Cl  0  0  0  0  0  0  0  0  0  0  0  0
    2.0980   -2.4510    0.0000 C   0  0  0  0  0  0  0  0  0  0  0  0
    1.0777   -1.3515    0.0000 C   0  0  0  0  0  0  0  0  0  0  0  0
  3  2  1  6
  3  4  1  0
  4  5  1  0
  5  6  1  0
  6  7  1  0
  7  8  1  0
  8  9  2  0
  9 10  1  0
 10 11  2  0
 11 12  1  0
 11 13  1  0
 13 14  2  0
 14  3  1  0
 14  8  1  0
M  END
$$$$
674300
     RDKit          2D

 22 23  0  0  0  0  0  0  0  0999 V2000
    5.5000    0.0000    0.0000 Cl  0  0  0  0  0  0  0  0  0  0  0  0
   -0.9697   -4.6634    0.0000 C   0  0  0  0  0  0  0  0  0  0  0  0
   -0.7500   -3.8971    0.0000 C   0  0  0  0  0  0  0  0  0  0  0  0
    0.7500   -3.8971    0.0000 C   0  0  0  0  0  0  0  0  0  0  0  0
    1.5000   -2.5981    0.0000 C   0  0  0  0  0  0  0  0  0  0  0  0
    0.7500   -1.2990    0.0000 C   0  0  0  0  0  0  0  0  0  0  0  0
    1.5000    0.0000    0.0000 C   0  0  0  0  0  0  0  0  0  0  0  0
    0.7500    1.2990    0.0000 C   0  0  0  0  0  0  0  0  0  0  0  0
   -0.7500    1.2990    0.0000 C   0  0  0  0  0  0  0  0  0  0  0  0
   -1.5000    2.5981    0.0000 O   0  0  0  0  0  0  0  0  0  0  0  0
   -1.5000    0.0000    0.0000 C   0  0  0  0  0  0  0  0  0  0  0  0
   -0.7500   -1.2990    0.0000 C   0  0  0  0  0  0  0  0  0  0  0  0
   -1.5000   -2.5981    0.0000 C   0  0  0  0  0  0  0  0  0  0  0  0
   -3.0000   -2.5981    0.0000 C   0  0  0  0  0  0  0  0  0  0  0  0
   -2.2500   -3.8971    0.0000 C   0  0  0  0  0  0  0  0  0  0  0  0
   -1.5000   -5.1962    0.0000 C   0  0  0  0  0  0  0  0  0  0  0  0
    0.0000   -5.1962    0.0000 N   0  0  0  0  0  0  0  0  0  0  0  0
    0.7500   -6.4952    0.0000 C   0  0  0  0  0  0  0  0  0  0  0  0
    2.2500   -6.4952    0.0000 C   0  0  0  0  0  0  0  0  0  0  0  0
    3.0000   -7.7942    0.0000 C   0  0  0  0  0  0  0  0  0  0  0  0
    4.5000   -7.7942    0.0000 C   0  0  0  0  0  0  0  0  0  0  0  0
    2.2500   -9.0933    0.0000 C   0  0  0  0  0  0  0  0  0  0  0  0
  3  2  1  6
  3  4  1  0
  4  5  1  1
  5  6  1  0
  6  7  2  0
  7  8  1  0
  8  9  2  0
  9 10  1  0
  9 11  1  0
 11 12  2  0
 12 13  1  0
 13 14  1  6
 13 15  1  0
 15 16  1  0
 16 17  1  0
 17 18  1  0
 18 19  1  0
 19 20  2  0
 20 21  1  0
 20 22  1  0
 13  3  1  0
 17  4  1  0
 12  6  1  0
M  END
$$$$
549367
     RDKit          2D

 25 27  0  0  0  0  0  0  0  0999 V2000
    3.2655    0.0000    0.0000 Cl  0  0  0  0  0  0  0  0  0  0  0  0
    2.2655   10.0169    0.0000 F   0  0  0  0  0  0  0  0  0  0  0  0
    0.8389    9.5533    0.0000 C   0  0  0  0  0  0  0  0  0  0  0  0
    0.5271    8.0861    0.0000 C   0  0  0  0  0  0  0  0  0  0  0  0
   -0.8995    7.6226    0.0000 C   0  0  0  0  0  0  0  0  0  0  0  0
   -2.0143    8.6263    0.0000 C   0  0  0  0  0  0  0  0  0  0  0  0
   -1.7024   10.0935    0.0000 C   0  0  0  0  0  0  0  0  0  0  0  0
   -0.2758   10.5570    0.0000 C   0  0  0  0  0  0  0  0  0  0  0  0
   -3.4408    8.1628    0.0000 C   0  0  0  0  0  0  0  0  0  0  0  0
   -4.5556    9.1664    0.0000 C   0  0  0  0  0  0  0  0  0  0  0  0
   -5.9821    8.7029    0.0000 C   0  0  0  0  0  0  0  0  0  0  0  0
   -6.2940    7.2357    0.0000 N   0  0  0  0  0  0  0  0  0  0  0  0
   -5.1793    6.2320    0.0000 C   0  0  0  0  0  0  0  0  0  0  0  0
   -3.7527    6.6955    0.0000 C   0  0  0  0  0  0  0  0  0  0  0  0
   -2.6380    5.6918    0.0000 C   0  0  0  0  0  0  0  0  0  0  0  0
   -2.9499    4.2246    0.0000 O   0  0  0  0  0  0  0  0  0  0  0  0
   -1.8351    3.2209    0.0000 C   0  0  0  0  0  0  0  0  0  0  0  0
   -0.4086    3.6844    0.0000 C   0  0  0  0  0  0  0  0  0  0  0  0
    0.7062    2.6807    0.0000 C   0  0  0  0  0  0  0  0  0  0  0  0
    0.3943    1.2135    0.0000 C   0  0  0  0  0  0  0  0  0  0  0  0
    1.2760    0.0000    0.0000 O   0  0  0  0  0  0  0  0  0  0  0  0
    0.3943   -1.2135    0.0000 C   0  0  0  0  0  0  0  0  0  0  0  0
   -1.0323   -0.7500    0.0000 O   0  0  0  0  0  0  0  0  0  0  0  0
   -1.0323    0.7500    0.0000 C   0  0  0  0  0  0  0  0  0  0  0  0
   -2.1470    1.7537    0.0000 C   0  0  0  0  0  0  0  0  0  0  0  0
  2  3  1  0
  3  4  2  0
  4  5  1  0
  5  6  2  0
  6  7  1  0
  7  8  2  0
  9  6  1  1
  9 10  1  0
 10 11  1  0
 11 12  1  0
 12 13  1  0
 13 14  1  0
 14 15  1  6
 15 16  1  0
 16 17  1  0
 17 18  2  0
 18 19  1  0
 19 20  2  0
 20 21  1  0
 21 22  1  0
 22 23  1  0
 23 24  1  0
 24 25  2  0
  8  3  1  0
 14  9  1  0
 25 17  1  0
 24 20  1  0
M  END
$$$$
674679
     RDKit          2D

  5  3  0  0  0  0  0  0  0  0999 V2000
    0.0000    1.7500    0.0000 Cl  0  0  0  0  0  0  0  0  0  0  0  0
    1.2990    0.7500    0.0000 N   0  0  0  0  0  0  0  0  0  0  0  0
    0.0000    0.0000    0.0000 C   0  0  0  0  0  0  0  0  0  0  0  0
   -0.0000   -1.5000    0.0000 N   0  0  0  0  0  0  0  0  0  0  0  0
   -1.2990    0.7500    0.0000 N   0  0  0  0  0  0  0  0  0  0  0  0
  2  3  1  0
  3  4  2  0
  3  5  1  0
M  END
$$$$
674445
     RDKit          2D

 16 15  0  0  0  0  0  0  0  0999 V2000
    0.0000    3.5981    0.0000 Cl  0  0  0  0  0  0  0  0  0  0  0  0
    7.5000   -2.5981    0.0000 N   0  0  0  0  0  0  0  0  0  0  0  0
    6.0000   -2.5981    0.0000 C   0  0  0  0  0  0  0  0  0  0  0  0
    5.2500   -3.8971    0.0000 N   0  0  0  0  0  0  0  0  0  0  0  0
    5.2500   -1.2990    0.0000 N   0  0  0  0  0  0  0  0  0  0  0  0
    3.7500   -1.2990    0.0000 C   0  0  0  0  0  0  0  0  0  0  0  0
    3.0000   -2.5981    0.0000 O   0  0  0  0  0  0  0  0  0  0  0  0
    3.0000    0.0000    0.0000 C   0  0  0  0  0  0  0  0  0  0  0  0
    1.5000    0.0000    0.0000 C   0  0  0  0  0  0  0  0  0  0  0  0
    0.7500   -1.2990    0.0000 C   0  0  0  0  0  0  0  0  0  0  0  0
    1.5000   -2.5981    0.0000 Cl  0  0  0  0  0  0  0  0  0  0  0  0
   -0.7500   -1.2990    0.0000 C   0  0  0  0  0  0  0  0  0  0  0  0
   -1.5000    0.0000    0.0000 C   0  0  0  0  0  0  0  0  0  0  0  0
   -0.7500    1.2990    0.0000 C   0  0  0  0  0  0  0  0  0  0  0  0
    0.7500    1.2990    0.0000 C   0  0  0  0  0  0  0  0  0  0  0  0
    1.5000    2.5981    0.0000 Cl  0  0  0  0  0  0  0  0  0  0  0  0
  2  3  1  0
  3  4  2  0
  3  5  1  0
  5  6  1  0
  6  7  2  0
  6  8  1  0
  8  9  1  0
  9 10  2  0
 10 11  1  0
 10 12  1  0
 12 13  2  0
 13 14  1  0
 14 15  2  0
 15 16  1  0
 15  9  1  0
M  END
$$$$
1038357
     RDKit          2D

 34 37  0  0  0  0  0  0  0  0999 V2000
    2.5000    0.0000    0.0000 Cl  0  0  0  0  0  0  0  0  0  0  0  0
   -1.2990   -5.8573    0.0000 N   0  0  0  0  0  0  0  0  0  0  0  0
   -0.0000   -5.1073    0.0000 C   0  0  0  0  0  0  0  0  0  0  0  0
    1.2990   -5.8573    0.0000 O   0  0  0  0  0  0  0  0  0  0  0  0
   -0.0000   -3.6073    0.0000 C   0  0  0  0  0  0  0  0  0  0  0  0
    1.2135   -2.7256    0.0000 O   0  0  0  0  0  0  0  0  0  0  0  0
    0.7500   -1.2990    0.0000 C   0  0  0  0  0  0  0  0  0  0  0  0
    1.5000    0.0000    0.0000 C   0  0  0  0  0  0  0  0  0  0  0  0
    0.7500    1.2990    0.0000 C   0  0  0  0  0  0  0  0  0  0  0  0
   -0.7500    1.2990    0.0000 C   0  0  0  0  0  0  0  0  0  0  0  0
   -1.5000    0.0000    0.0000 C   0  0  0  0  0  0  0  0  0  0  0  0
   -0.7500   -1.2990    0.0000 C   0  0  0  0  0  0  0  0  0  0  0  0
   -1.2135   -2.7256    0.0000 C   0  0  0  0  0  0  0  0  0  0  0  0
   -1.5000    2.5981    0.0000 N   0  0  0  0  0  0  0  0  0  0  0  0
   -0.7500    3.8971    0.0000 C   0  0  0  0  0  0  0  0  0  0  0  0
   -1.5000    5.1962    0.0000 C   0  0  0  0  0  0  0  0  0  0  0  0
   -3.0000    5.1962    0.0000 N   0  0  0  0  0  0  0  0  0  0  0  0
   -3.7500    6.4952    0.0000 C   0  0  0  0  0  0  0  0  0  0  0  0
   -3.0000    7.7942    0.0000 C   0  0  0  0  0  0  0  0  0  0  0  0
   -3.7500    9.0933    0.0000 C   0  0  0  0  0  0  0  0  0  0  0  0
   -3.0000   10.3923    0.0000 C   0  0  0  0  0  0  0  0  0  0  0  0
   -3.7500   11.6913    0.0000 C   0  0  0  0  0  0  0  0  0  0  0  0
   -5.2418   11.8481    0.0000 C   0  0  0  0  0  0  0  0  0  0  0  0
   -5.5537   13.3154    0.0000 N   0  0  0  0  0  0  0  0  0  0  0  0
   -4.2546   14.0654    0.0000 C   0  0  0  0  0  0  0  0  0  0  0  0
   -3.9427   15.5326    0.0000 C   0  0  0  0  0  0  0  0  0  0  0  0
   -2.5162   15.9961    0.0000 C   0  0  0  0  0  0  0  0  0  0  0  0
   -1.4014   14.9924    0.0000 C   0  0  0  0  0  0  0  0  0  0  0  0
   -1.7133   13.5252    0.0000 C   0  0  0  0  0  0  0  0  0  0  0  0
   -3.1399   13.0617    0.0000 C   0  0  0  0  0  0  0  0  0  0  0  0
    0.0251   15.4559    0.0000 C   0  0  0  0  0  0  0  0  0  0  0  0
    1.4517   15.9195    0.0000 N   0  0  0  0  0  0  0  0  0  0  0  0
   -3.7500    3.8971    0.0000 C   0  0  0  0  0  0  0  0  0  0  0  0
   -3.0000    2.5981    0.0000 C   0  0  0  0  0  0  0  0  0  0  0  0
  2  3  1  0
  3  4  2  0
  3  5  1  0
  5  6  1  0
  6  7  1  0
  7  8  2  0
  8  9  1  0
  9 10  2  0
 10 11  1  0
 11 12  2  0
 12 13  1  0
 10 14  1  0
 14 15  1  0
 15 16  1  0
 16 17  1  0
 17 18  1  0
 18 19  1  0
 19 20  1  0
 20 21  1  0
 21 22  1  0
 22 23  2  0
 23 24  1  0
 24 25  1  0
 25 26  2  0
 26 27  1  0
 27 28  2  0
 28 29  1  0
 29 30  2  0
 28 31  1  0
 31 32  3  0
 17 33  1  0
 33 34  1  0
 13  5  2  0
 12  7  1  0
 34 14  1  0
 30 22  1  0
 30 25  1  0
M  END
$$$$
452635
     RDKit          2D

 12 13  0  0  0  0  0  0  0  0999 V2000
    0.0000    2.2990    0.0000 Cl  0  0  0  0  0  0  0  0  0  0  0  0
    1.5000   -2.5981    0.0000 N   0  0  0  0  0  0  0  0  0  0  0  0
    0.7500   -1.2990    0.0000 C   0  0  0  0  0  0  0  0  0  0  0  0
    1.5000    0.0000    0.0000 C   0  0  0  0  0  0  0  0  0  0  0  0
    0.7500    1.2990    0.0000 C   0  0  0  0  0  0  0  0  0  0  0  0
   -0.7500    1.2990    0.0000 C   0  0  0  0  0  0  0  0  0  0  0  0
   -1.5000    0.0000    0.0000 C   0  0  0  0  0  0  0  0  0  0  0  0
    1.7010   -0.7500    0.0000 C   0  0  0  0  0  0  0  0  0  0  0  0
    3.0000   -0.0000    0.0000 C   0  0  0  0  0  0  0  0  0  0  0  0
    2.2500    1.2990    0.0000 C   0  0  0  0  0  0  0  0  0  0  0  0
    2.2500   -1.2990    0.0000 C   0  0  0  0  0  0  0  0  0  0  0  0
   -0.7500   -1.2990    0.0000 C   0  0  0  0  0  0  0  0  0  0  0  0
  2  3  1  0
  3  4  1  0
  4  5  1  0
  5  6  1  0
  6  7  1  0
  7  8  1  0
  8  9  1  0
  9 10  1  0
  9 11  1  0
  7 12  1  0
 11  3  1  0
 12  3  1  0
 10  5  1  0
M  END
$$$$
508604
     RDKit          2D

 16 17  0  0  0  0  0  0  0  0999 V2000
    4.0000    0.0000    0.0000 Cl  0  0  0  0  0  0  0  0  0  0  0  0
    3.0000   -2.5981    0.0000 N   0  0  0  0  0  0  0  0  0  0  0  0
    1.5000   -2.5981    0.0000 C   0  0  0  0  0  0  0  0  0  0  0  0
    0.7500   -1.2990    0.0000 C   0  0  0  0  0  0  0  0  0  0  0  0
    1.5000    0.0000    0.0000 C   0  0  0  0  0  0  0  0  0  0  0  0
    0.7500    1.2990    0.0000 C   0  0  0  0  0  0  0  0  0  0  0  0
   -0.7500    1.2990    0.0000 C   0  0  0  0  0  0  0  0  0  0  0  0
   -1.5000    0.0000    0.0000 C   0  0  0  0  0  0  0  0  0  0  0  0
   -0.7500   -1.2990    0.0000 C   0  0  0  0  0  0  0  0  0  0  0  0
   -1.5000   -2.5981    0.0000 N   0  0  0  0  0  0  0  0  0  0  0  0
   -0.7500   -3.8971    0.0000 C   0  0  0  0  0  0  0  0  0  0  0  0
   -1.5000   -5.1962    0.0000 C   0  0  0  0  0  0  0  0  0  0  0  0
   -0.7500   -6.4952    0.0000 C   0  0  0  0  0  0  0  0  0  0  0  0
    0.7500   -6.4952    0.0000 C   0  0  0  0  0  0  0  0  0  0  0  0
    1.5000   -5.1962    0.0000 C   0  0  0  0  0  0  0  0  0  0  0  0
    0.7500   -3.8971    0.0000 C   0  0  0  0  0  0  0  0  0  0  0  0
  2  3  1  0
  3  4  2  0
  4  5  1  0
  5  6  1  0
  6  7  1  0
  7  8  1  0
  8  9  1  0
  9 10  2  0
 10 11  1  0
 11 12  2  0
 12 13  1  0
 13 14  2  0
 14 15  1  0
 15 16  2  0
 16  3  1  0
  9  4  1  0
 16 11  1  0
M  END
$$$$
674973
     RDKit          2D

 17 17  0  0  0  0  0  0  0  0999 V2000
    0.0000    3.5981    0.0000 Cl  0  0  0  0  0  0  0  0  0  0  0  0
    3.0000    0.0000    0.0000 N   0  0  0  0  0  0  0  0  0  0  0  0
    1.5000    0.0000    0.0000 C   0  0  0  0  0  0  0  0  0  0  0  0
    0.7500   -1.2990    0.0000 C   0  0  0  0  0  0  0  0  0  0  0  0
   -0.7500   -1.2990    0.0000 C   0  0  0  0  0  0  0  0  0  0  0  0
   -1.5000    0.0000    0.0000 C   0  0  0  0  0  0  0  0  0  0  0  0
   -3.0000    0.0000    0.0000 N   0  0  0  0  0  0  0  0  0  0  0  0
   -3.7500    1.2990    0.0000 N   0  0  0  0  0  0  0  0  0  0  0  0
   -5.2500    1.2990    0.0000 C   0  0  0  0  0  0  0  0  0  0  0  0
   -6.0000    2.5981    0.0000 C   0  0  0  0  0  0  0  0  0  0  0  0
   -7.5000    2.5981    0.0000 C   0  0  0  0  0  0  0  0  0  0  0  0
   -8.2500    1.2990    0.0000 C   0  0  0  0  0  0  0  0  0  0  0  0
   -7.5000    0.0000    0.0000 C   0  0  0  0  0  0  0  0  0  0  0  0
   -6.0000    0.0000    0.0000 C   0  0  0  0  0  0  0  0  0  0  0  0
   -0.7500    1.2990    0.0000 C   0  0  0  0  0  0  0  0  0  0  0  0
   -1.5000    2.5981    0.0000 N   0  0  0  0  0  0  0  0  0  0  0  0
    0.7500    1.2990    0.0000 N   0  0  0  0  0  0  0  0  0  0  0  0
  2  3  1  0
  3  4  2  0
  4  5  1  0
  5  6  2  0
  6  7  1  0
  7  8  2  3
  8  9  1  0
  9 10  2  0
 10 11  1  0
 11 12  2  0
 12 13  1  0
 13 14  2  0
  6 15  1  0
 15 16  1  0
 15 17  2  0
 17  3  1  0
 14  9  1  0
M  END
$$$$
674734
     RDKit          2D

 11  9  0  0  0  0  0  0  0  0999 V2000
    0.0000    1.7500    0.0000 Cl  0  0  0  0  0  0  0  0  0  0  0  0
   -1.2990    0.7500    0.0000 N   0  0  0  0  0  0  0  0  0  0  0  0
    0.0000    0.0000    0.0000 C   0  0  0  0  0  0  0  0  0  0  0  0
    1.2990    0.7500    0.0000 C   0  0  0  0  0  0  0  0  0  0  0  0
    2.5981   -0.0000    0.0000 N   0  0  0  0  0  0  0  0  0  0  0  0
    3.8971    0.7500    0.0000 C   0  0  0  0  0  0  0  0  0  0  0  0
    5.1962   -0.0000    0.0000 C   0  0  0  0  0  0  0  0  0  0  0  0
    6.4952    0.7500    0.0000 N   0  0  0  0  0  0  0  0  0  0  0  0
    7.7942   -0.0000    0.0000 C   0  0  0  0  0  0  0  0  0  0  0  0
    9.0933    0.7500    0.0000 C   0  0  0  0  0  0  0  0  0  0  0  0
   10.3923   -0.0000    0.0000 N   0  0  0  0  0  0  0  0  0  0  0  0
  2  3  1  0
  3  4  1  0
  4  5  1  0
  5  6  1  0
  6  7  1  0
  7  8  1  0
  8  9  1  0
  9 10  1  0
 10 11  1  0
M  END
$$$$
543263
     RDKit          2D

 13 13  0  0  0  0  0  0  0  0999 V2000
    0.0000    2.2990    0.0000 Cl  0  0  0  0  0  0  0  0  0  0  0  0
   -3.7500   -3.8971    0.0000 N   0  0  0  0  0  0  0  0  0  0  0  0
   -3.0000   -2.5981    0.0000 N   0  0  0  0  0  0  0  0  0  0  0  0
   -1.5000   -2.5981    0.0000 C   0  0  0  0  0  0  0  0  0  0  0  0
   -0.7500   -3.8971    0.0000 N   0  0  0  0  0  0  0  0  0  0  0  0
    0.7500   -3.8971    0.0000 N   0  0  0  0  0  0  0  0  0  0  0  0
    1.5000   -2.5981    0.0000 C   0  0  0  0  0  0  0  0  0  0  0  0
    0.7500   -1.2990    0.0000 C   0  0  0  0  0  0  0  0  0  0  0  0
    1.5000    0.0000    0.0000 C   0  0  0  0  0  0  0  0  0  0  0  0
    0.7500    1.2990    0.0000 C   0  0  0  0  0  0  0  0  0  0  0  0
   -0.7500    1.2990    0.0000 C   0  0  0  0  0  0  0  0  0  0  0  0
   -1.5000    0.0000    0.0000 C   0  0  0  0  0  0  0  0  0  0  0  0
   -0.7500   -1.2990    0.0000 C   0  0  0  0  0  0  0  0  0  0  0  0
  2  3  1  0
  3  4  1  0
  4  5  2  0
  5  6  1  0
  6  7  2  0
  7  8  1  0
  8  9  2  0
  9 10  1  0
 10 11  2  0
 11 12  1  0
 12 13  2  0
 13  4  1  0
 13  8  1  0
M  END
$$$$
675694
     RDKit          2D

 24 27  0  0  0  0  0  0  0  0999 V2000
    5.9992    0.0000    0.0000 Cl  0  0  0  0  0  0  0  0  0  0  0  0
    3.0000   -2.5981    0.0000 N   0  0  0  0  0  0  0  0  0  0  0  0
    1.5000   -2.5981    0.0000 C   0  0  0  0  0  0  0  0  0  0  0  0
    0.7500   -3.8971    0.0000 C   0  0  0  0  0  0  0  0  0  0  0  0
   -0.7500   -3.8971    0.0000 O   0  0  0  0  0  0  0  0  0  0  0  0
    1.5000   -5.1962    0.0000 N   0  0  0  0  0  0  0  0  0  0  0  0
    2.9918   -5.3529    0.0000 C   0  0  0  0  0  0  0  0  0  0  0  0
    3.3037   -6.8202    0.0000 C   0  0  0  0  0  0  0  0  0  0  0  0
    2.0046   -7.5702    0.0000 C   0  0  0  0  0  0  0  0  0  0  0  0
    0.5780   -8.0337    0.0000 C   0  0  0  0  0  0  0  0  0  0  0  0
    0.8899   -6.5665    0.0000 C   0  0  0  0  0  0  0  0  0  0  0  0
    3.9955   -4.2382    0.0000 C   0  0  0  0  0  0  0  0  0  0  0  0
    4.9992   -3.1235    0.0000 N   0  0  0  0  0  0  0  0  0  0  0  0
    0.7500   -1.2990    0.0000 C   0  0  0  0  0  0  0  0  0  0  0  0
    1.5000    0.0000    0.0000 C   0  0  0  0  0  0  0  0  0  0  0  0
    0.7500    1.2990    0.0000 C   0  0  0  0  0  0  0  0  0  0  0  0
   -0.7500    1.2990    0.0000 C   0  0  0  0  0  0  0  0  0  0  0  0
   -1.5000    0.0000    0.0000 C   0  0  0  0  0  0  0  0  0  0  0  0
    1.7010   -0.7500    0.0000 C   0  0  0  0  0  0  0  0  0  0  0  0
    3.0000   -0.0000    0.0000 C   0  0  0  0  0  0  0  0  0  0  0  0
    4.5000   -0.0000    0.0000 O   0  0  0  0  0  0  0  0  0  0  0  0
    2.2500    1.2990    0.0000 C   0  0  0  0  0  0  0  0  0  0  0  0
    2.2500   -1.2990    0.0000 C   0  0  0  0  0  0  0  0  0  0  0  0
   -0.7500   -1.2990    0.0000 C   0  0  0  0  0  0  0  0  0  0  0  0
  3  2  1  6
  3  4  1  0
  4  5  2  0
  4  6  1  0
  6  7  1  0
  7  8  1  0
  9  8  1  6
  9 10  1  0
 11 10  1  6
  7 12  1  6
 12 13  3  0
  3 14  1  0
 14 15  1  0
 15 16  1  0
 16 17  1  0
 17 18  1  0
 18 19  1  0
 19 20  1  0
 20 21  1  0
 20 22  1  0
 20 23  1  0
 18 24  1  0
 11  6  1  0
 11  9  1  0
 23 14  1  0
 24 14  1  0
 22 16  1  0
M  END
$$$$
674350
     RDKit          2D

 29 31  0  0  0  0  0  0  0  0999 V2000
    9.9677    0.0000    0.0000 Cl  0  0  0  0  0  0  0  0  0  0  0  0
    3.7923    3.2638    0.0000 O   0  0  0  0  0  0  0  0  0  0  0  0
    2.3250    2.9520    0.0000 C   0  0  0  0  0  0  0  0  0  0  0  0
    1.8615    1.5254    0.0000 C   0  0  0  0  0  0  0  0  0  0  0  0
    0.3943    1.2135    0.0000 C   0  0  0  0  0  0  0  0  0  0  0  0
    1.2760    0.0000    0.0000 C   0  0  0  0  0  0  0  0  0  0  0  0
    0.3943   -1.2135    0.0000 C   0  0  0  0  0  0  0  0  0  0  0  0
   -1.0323   -0.7500    0.0000 C   0  0  0  0  0  0  0  0  0  0  0  0
   -1.0323    0.7500    0.0000 C   0  0  0  0  0  0  0  0  0  0  0  0
   -0.6094    2.3282    0.0000 C   0  0  0  0  0  0  0  0  0  0  0  0
   -0.1459    3.7548    0.0000 C   0  0  0  0  0  0  0  0  0  0  0  0
   -1.1496    4.8695    0.0000 O   0  0  0  0  0  0  0  0  0  0  0  0
    1.3213    4.0667    0.0000 N   0  0  0  0  0  0  0  0  0  0  0  0
    1.7849    5.4933    0.0000 C   0  0  0  0  0  0  0  0  0  0  0  0
    3.2521    5.8051    0.0000 C   0  0  0  0  0  0  0  0  0  0  0  0
    3.7156    7.2317    0.0000 C   0  0  0  0  0  0  0  0  0  0  0  0
    5.1828    7.5436    0.0000 C   0  0  0  0  0  0  0  0  0  0  0  0
    5.6464    8.9702    0.0000 N   0  0  0  0  0  0  0  0  0  0  0  0
    7.1136    9.2821    0.0000 C   0  0  0  0  0  0  0  0  0  0  0  0
    7.5771   10.7086    0.0000 C   0  0  0  0  0  0  0  0  0  0  0  0
    6.5734   11.8234    0.0000 N   0  0  0  0  0  0  0  0  0  0  0  0
    5.1062   11.5115    0.0000 C   0  0  0  0  0  0  0  0  0  0  0  0
    4.6427   10.0849    0.0000 C   0  0  0  0  0  0  0  0  0  0  0  0
    7.0369   13.2499    0.0000 C   0  0  0  0  0  0  0  0  0  0  0  0
    8.5042   13.5618    0.0000 N   0  0  0  0  0  0  0  0  0  0  0  0
    8.9677   14.9884    0.0000 C   0  0  0  0  0  0  0  0  0  0  0  0
    7.9640   16.1031    0.0000 C   0  0  0  0  0  0  0  0  0  0  0  0
    6.4968   15.7912    0.0000 C   0  0  0  0  0  0  0  0  0  0  0  0
    6.0332   14.3647    0.0000 N   0  0  0  0  0  0  0  0  0  0  0  0
  2  3  2  0
  3  4  1  0
  4  5  1  0
  5  6  1  0
  6  7  1  0
  7  8  1  0
  8  9  1  0
  5 10  1  0
 10 11  1  0
 11 12  2  0
 11 13  1  0
 13 14  1  0
 14 15  1  0
 15 16  1  0
 16 17  1  0
 17 18  1  0
 18 19  1  0
 19 20  1  0
 20 21  1  0
 21 22  1  0
 22 23  1  0
 21 24  1  0
 24 25  2  0
 25 26  1  0
 26 27  2  0
 27 28  1  0
 28 29  2  0
 13  3  1  0
  9  5  1  0
 23 18  1  0
 29 24  1  0
M  END
$$$$
551486
     RDKit          2D

 23 26  0  0  0  0  0  0  0  0999 V2000
    4.7500    0.0000    0.0000 Cl  0  0  0  0  0  0  0  0  0  0  0  0
   -1.5000   -5.1962    0.0000 O   0  0  0  0  0  0  0  0  0  0  0  0
   -0.7500   -3.8971    0.0000 C   0  0  0  0  0  0  0  0  0  0  0  0
    0.7500   -3.8971    0.0000 N   0  0  0  0  0  0  0  0  0  0  0  0
    1.5000   -2.5981    0.0000 C   0  0  0  0  0  0  0  0  0  0  0  0
    0.7500   -1.2990    0.0000 C   0  0  0  0  0  0  0  0  0  0  0  0
    1.5000    0.0000    0.0000 C   0  0  0  0  0  0  0  0  0  0  0  0
    0.7500    1.2990    0.0000 C   0  0  0  0  0  0  0  0  0  0  0  0
   -0.7500    1.2990    0.0000 C   0  0  0  0  0  0  0  0  0  0  0  0
   -1.5000    0.0000    0.0000 C   0  0  0  0  0  0  0  0  0  0  0  0
   -3.0000   -0.0000    0.0000 C   0  0  0  0  0  0  0  0  0  0  0  0
   -3.7500   -1.2990    0.0000 C   0  0  0  0  0  0  0  0  0  0  0  0
   -3.0000   -2.5981    0.0000 C   0  0  0  0  0  0  0  0  0  0  0  0
   -1.5000   -2.5981    0.0000 C   0  0  0  0  0  0  0  0  0  0  0  0
   -0.7500   -1.2990    0.0000 C   0  0  0  0  0  0  0  0  0  0  0  0
    1.5718   -6.4447    0.0000 C   0  0  0  0  0  0  0  0  0  0  0  0
    2.9282   -6.4447    0.0000 C   0  0  0  0  0  0  0  0  0  0  0  0
    3.7500   -6.4952    0.0000 N   0  0  0  0  0  0  0  0  0  0  0  0
    3.0000   -7.7942    0.0000 C   0  0  0  0  0  0  0  0  0  0  0  0
    1.5000   -7.7942    0.0000 C   0  0  0  0  0  0  0  0  0  0  0  0
    0.7500   -6.4952    0.0000 C   0  0  0  0  0  0  0  0  0  0  0  0
    1.5000   -5.1962    0.0000 C   0  0  0  0  0  0  0  0  0  0  0  0
    3.0000   -5.1962    0.0000 C   0  0  0  0  0  0  0  0  0  0  0  0
  2  3  2  0
  3  4  1  0
  4  5  1  0
  6  5  1  6
  6  7  1  0
  7  8  1  0
  8  9  1  0
  9 10  1  0
 10 11  1  0
 11 12  2  0
 12 13  1  0
 13 14  2  0
 14 15  1  0
 16  4  1  6
 16 17  1  0
 17 18  1  0
 18 19  1  0
 19 20  1  0
 20 21  1  0
 21 22  1  0
 22 23  1  0
 14  3  1  0
 15  6  1  0
 15 10  2  0
 21 16  1  0
 23 18  1  0
M  END
$$$$
1038355
     RDKit          2D

 36 41  0  0  0  0  0  0  0  0999 V2000
    0.0000   11.5623    0.0000 Cl  0  0  0  0  0  0  0  0  0  0  0  0
   -1.4504    4.3172    0.0000 O   0  0  0  0  0  0  0  0  0  0  0  0
   -1.9140    2.8906    0.0000 C   0  0  0  0  0  0  0  0  0  0  0  0
   -1.0323    1.6771    0.0000 C   0  0  0  0  0  0  0  0  0  0  0  0
    0.3943    1.2135    0.0000 C   0  0  0  0  0  0  0  0  0  0  0  0
    1.2760    0.0000    0.0000 C   0  0  0  0  0  0  0  0  0  0  0  0
    0.3943   -1.2135    0.0000 C   0  0  0  0  0  0  0  0  0  0  0  0
   -1.0323   -0.7500    0.0000 C   0  0  0  0  0  0  0  0  0  0  0  0
   -1.0323    0.7500    0.0000 C   0  0  0  0  0  0  0  0  0  0  0  0
   -1.9140    0.4635    0.0000 C   0  0  0  0  0  0  0  0  0  0  0  0
   -3.3405    0.9271    0.0000 C   0  0  0  0  0  0  0  0  0  0  0  0
   -4.5541    0.0454    0.0000 O   0  0  0  0  0  0  0  0  0  0  0  0
   -3.3405    2.4271    0.0000 N   0  0  0  0  0  0  0  0  0  0  0  0
   -4.5541    3.3087    0.0000 C   0  0  0  0  0  0  0  0  0  0  0  0
   -4.3973    4.8005    0.0000 C   0  0  0  0  0  0  0  0  0  0  0  0
   -3.0270    5.4106    0.0000 C   0  0  0  0  0  0  0  0  0  0  0  0
   -2.8702    6.9024    0.0000 C   0  0  0  0  0  0  0  0  0  0  0  0
   -4.0837    7.7841    0.0000 C   0  0  0  0  0  0  0  0  0  0  0  0
   -5.4540    7.1740    0.0000 C   0  0  0  0  0  0  0  0  0  0  0  0
   -5.6108    5.6822    0.0000 C   0  0  0  0  0  0  0  0  0  0  0  0
   -6.9811    5.0721    0.0000 C   0  0  0  0  0  0  0  0  0  0  0  0
   -8.1947    5.9538    0.0000 N   0  0  0  0  0  0  0  0  0  0  0  0
   -8.0379    7.4455    0.0000 C   0  0  0  0  0  0  0  0  0  0  0  0
   -9.2514    8.3272    0.0000 C   0  0  0  0  0  0  0  0  0  0  0  0
  -10.6217    7.7171    0.0000 N   0  0  0  0  0  0  0  0  0  0  0  0
  -10.7785    6.2253    0.0000 C   0  0  0  0  0  0  0  0  0  0  0  0
   -9.5650    5.3437    0.0000 C   0  0  0  0  0  0  0  0  0  0  0  0
  -11.8352    8.5988    0.0000 C   0  0  0  0  0  0  0  0  0  0  0  0
  -11.8352   10.0988    0.0000 N   0  0  0  0  0  0  0  0  0  0  0  0
  -13.2618   10.5623    0.0000 S   0  0  0  0  0  0  0  0  0  0  0  0
  -14.1435    9.3488    0.0000 C   0  0  0  0  0  0  0  0  0  0  0  0
  -15.6353    9.1920    0.0000 C   0  0  0  0  0  0  0  0  0  0  0  0
  -16.2454    7.8217    0.0000 C   0  0  0  0  0  0  0  0  0  0  0  0
  -15.3637    6.6082    0.0000 C   0  0  0  0  0  0  0  0  0  0  0  0
  -13.8719    6.7650    0.0000 C   0  0  0  0  0  0  0  0  0  0  0  0
  -13.2618    8.1353    0.0000 C   0  0  0  0  0  0  0  0  0  0  0  0
  2  3  2  0
  4  3  1  6
  4  5  1  0
  5  6  1  1
  6  7  1  0
  8  7  1  1
  8  9  1  0
  8 10  1  0
 10 11  1  6
 11 12  2  0
 11 13  1  0
 13 14  1  0
 15 14  1  1
 15 16  1  0
 16 17  1  0
 17 18  1  0
 18 19  1  0
 19 20  1  0
 20 21  1  6
 21 22  1  0
 22 23  1  0
 23 24  1  0
 24 25  1  0
 25 26  1  0
 26 27  1  0
 25 28  1  0
 28 29  2  0
 29 30  1  0
 30 31  1  0
 31 32  2  0
 32 33  1  0
 33 34  2  0
 34 35  1  0
 35 36  2  0
 13  3  1  0
 10  4  1  0
  9  5  1  0
 20 15  1  0
 27 22  1  0
 36 28  1  0
 36 31  1  0
M  END
$$$$
674550
     RDKit          2D

 33 35  0  0  0  0  0  0  0  0999 V2000
    5.9786    0.0000    0.0000 Cl  0  0  0  0  0  0  0  0  0  0  0  0
   -0.9200   -3.2893    0.0000 O   0  0  0  0  0  0  0  0  0  0  0  0
    0.4895   -2.7762    0.0000 C   0  0  0  0  0  0  0  0  0  0  0  0
    1.6386   -3.7404    0.0000 O   0  0  0  0  0  0  0  0  0  0  0  0
    0.7500   -1.2990    0.0000 C   0  0  0  0  0  0  0  0  0  0  0  0
    1.5000    0.0000    0.0000 C   0  0  0  0  0  0  0  0  0  0  0  0
    0.7500    1.2990    0.0000 C   0  0  0  0  0  0  0  0  0  0  0  0
   -0.7500    1.2990    0.0000 N   0  0  0  0  0  0  0  0  0  0  0  0
   -1.5000    2.5981    0.0000 C   0  0  0  0  0  0  0  0  0  0  0  0
   -0.7500    3.8971    0.0000 C   0  0  0  0  0  0  0  0  0  0  0  0
   -1.5000    5.1962    0.0000 C   0  0  0  0  0  0  0  0  0  0  0  0
   -2.7990    4.4462    0.0000 C   0  0  0  0  0  0  0  0  0  0  0  0
   -4.0981    3.6962    0.0000 N   0  0  0  0  0  0  0  0  0  0  0  0
   -2.2500    6.4952    0.0000 C   0  0  0  0  0  0  0  0  0  0  0  0
   -1.5000    7.7942    0.0000 C   0  0  0  0  0  0  0  0  0  0  0  0
   -2.2500    9.0933    0.0000 C   0  0  0  0  0  0  0  0  0  0  0  0
   -3.7500    9.0933    0.0000 C   0  0  0  0  0  0  0  0  0  0  0  0
   -4.5000    7.7942    0.0000 C   0  0  0  0  0  0  0  0  0  0  0  0
   -3.7500    6.4952    0.0000 C   0  0  0  0  0  0  0  0  0  0  0  0
   -0.2010    5.9462    0.0000 C   0  0  0  0  0  0  0  0  0  0  0  0
    1.0981    5.1962    0.0000 C   0  0  0  0  0  0  0  0  0  0  0  0
    2.3971    5.9462    0.0000 C   0  0  0  0  0  0  0  0  0  0  0  0
    2.3971    7.4462    0.0000 C   0  0  0  0  0  0  0  0  0  0  0  0
    1.0981    8.1962    0.0000 C   0  0  0  0  0  0  0  0  0  0  0  0
   -0.2010    7.4462    0.0000 C   0  0  0  0  0  0  0  0  0  0  0  0
   -1.5000    0.0000    0.0000 C   0  0  0  0  0  0  0  0  0  0  0  0
   -0.7500   -1.2990    0.0000 C   0  0  0  0  0  0  0  0  0  0  0  0
    2.1595   -1.8121    0.0000 C   0  0  0  0  0  0  0  0  0  0  0  0
    2.4200   -3.2893    0.0000 C   0  0  0  0  0  0  0  0  0  0  0  0
    3.8296   -3.8023    0.0000 C   0  0  0  0  0  0  0  0  0  0  0  0
    4.9786   -2.8381    0.0000 C   0  0  0  0  0  0  0  0  0  0  0  0
    4.7181   -1.3609    0.0000 C   0  0  0  0  0  0  0  0  0  0  0  0
    3.3086   -0.8479    0.0000 C   0  0  0  0  0  0  0  0  0  0  0  0
  2  3  1  0
  3  4  2  0
  3  5  1  0
  5  6  1  0
  6  7  1  0
  7  8  1  0
  8  9  1  0
  9 10  1  0
 10 11  1  0
 11 12  1  0
 12 13  3  0
 11 14  1  0
 14 15  2  0
 15 16  1  0
 16 17  2  0
 17 18  1  0
 18 19  2  0
 11 20  1  0
 20 21  2  0
 21 22  1  0
 22 23  2  0
 23 24  1  0
 24 25  2  0
  8 26  1  0
 26 27  1  0
  5 28  1  0
 28 29  2  0
 29 30  1  0
 30 31  2  0
 31 32  1  0
 32 33  2  0
 27  5  1  0
 19 14  1  0
 25 20  1  0
 33 28  1  0
M  END
$$$$
210388
     RDKit          2D

 25 27  0  0  0  0  0  0  0  0999 V2000
    5.2990    0.0000    0.0000 Cl  0  0  0  0  0  0  0  0  0  0  0  0
   -3.0000   -5.1962    0.0000 O   0  0  0  0  0  0  0  0  0  0  0  0
   -1.5000   -5.1962    0.0000 C   0  0  0  0  0  0  0  0  0  0  0  0
   -0.7500   -6.4952    0.0000 O   0  0  0  0  0  0  0  0  0  0  0  0
   -0.7500   -3.8971    0.0000 C   0  0  0  0  0  0  0  0  0  0  0  0
    0.7500   -3.8971    0.0000 C   0  0  0  0  0  0  0  0  0  0  0  0
    1.5000   -2.5981    0.0000 N   0  0  0  0  0  0  0  0  0  0  0  0
    3.0000   -2.5981    0.0000 C   0  0  0  0  0  0  0  0  0  0  0  0
    4.2990   -1.8481    0.0000 C   0  0  0  0  0  0  0  0  0  0  0  0
    4.2990   -3.3481    0.0000 C   0  0  0  0  0  0  0  0  0  0  0  0
    0.7500   -1.2990    0.0000 C   0  0  0  0  0  0  0  0  0  0  0  0
    1.5000    0.0000    0.0000 C   0  0  0  0  0  0  0  0  0  0  0  0
    0.7500    1.2990    0.0000 C   0  0  0  0  0  0  0  0  0  0  0  0
    1.5000    2.5981    0.0000 N   0  0  0  0  0  0  0  0  0  0  0  0
    3.0000    2.5981    0.0000 C   0  0  0  0  0  0  0  0  0  0  0  0
    3.7500    3.8971    0.0000 C   0  0  0  0  0  0  0  0  0  0  0  0
    3.0000    5.1962    0.0000 N   0  0  0  0  0  0  0  0  0  0  0  0
    1.5000    5.1962    0.0000 C   0  0  0  0  0  0  0  0  0  0  0  0
    0.7500    3.8971    0.0000 C   0  0  0  0  0  0  0  0  0  0  0  0
   -0.7500    1.2990    0.0000 C   0  0  0  0  0  0  0  0  0  0  0  0
   -1.5000    2.5981    0.0000 F   0  0  0  0  0  0  0  0  0  0  0  0
   -1.5000    0.0000    0.0000 C   0  0  0  0  0  0  0  0  0  0  0  0
   -0.7500   -1.2990    0.0000 C   0  0  0  0  0  0  0  0  0  0  0  0
   -1.5000   -2.5981    0.0000 C   0  0  0  0  0  0  0  0  0  0  0  0
   -3.0000   -2.5981    0.0000 O   0  0  0  0  0  0  0  0  0  0  0  0
  2  3  1  0
  3  4  2  0
  3  5  1  0
  5  6  2  0
  6  7  1  0
  7  8  1  0
  8  9  1  0
  9 10  1  0
  7 11  1  0
 11 12  2  0
 12 13  1  0
 13 14  1  0
 14 15  1  0
 15 16  1  0
 16 17  1  0
 17 18  1  0
 18 19  1  0
 13 20  2  0
 20 21  1  0
 20 22  1  0
 22 23  2  0
 23 24  1  0
 24 25  2  0
 24  5  1  0
 10  8  1  0
 23 11  1  0
 19 14  1  0
M  END
$$$$
675064
     RDKit          2D

 28 29  0  0  0  0  0  0  0  0999 V2000
    0.0000    4.8971    0.0000 Cl  0  0  0  0  0  0  0  0  0  0  0  0
    8.2500   -3.8971    0.0000 O   0  0  0  0  0  0  0  0  0  0  0  0
    7.5000   -2.5981    0.0000 C   0  0  0  0  0  0  0  0  0  0  0  0
    8.2500   -1.2990    0.0000 O   0  0  0  0  0  0  0  0  0  0  0  0
    6.0000   -2.5981    0.0000 C   0  0  0  0  0  0  0  0  0  0  0  0
    5.2500   -1.2990    0.0000 O   0  0  0  0  0  0  0  0  0  0  0  0
    3.7500   -1.2990    0.0000 C   0  0  0  0  0  0  0  0  0  0  0  0
    3.0000    0.0000    0.0000 C   0  0  0  0  0  0  0  0  0  0  0  0
    1.5000    0.0000    0.0000 N   0  0  0  0  0  0  0  0  0  0  0  0
    0.7500   -1.2990    0.0000 C   0  0  0  0  0  0  0  0  0  0  0  0
   -0.7500   -1.2990    0.0000 C   0  0  0  0  0  0  0  0  0  0  0  0
   -1.5000    0.0000    0.0000 N   0  0  0  0  0  0  0  0  0  0  0  0
   -0.7500    1.2990    0.0000 C   0  0  0  0  0  0  0  0  0  0  0  0
    0.7500    1.2990    0.0000 C   0  0  0  0  0  0  0  0  0  0  0  0
   -3.0000    0.0000    0.0000 C   0  0  0  0  0  0  0  0  0  0  0  0
   -3.7500    1.2990    0.0000 C   0  0  0  0  0  0  0  0  0  0  0  0
   -3.0000    2.5981    0.0000 C   0  0  0  0  0  0  0  0  0  0  0  0
   -3.7500    3.8971    0.0000 C   0  0  0  0  0  0  0  0  0  0  0  0
   -5.2500    3.8971    0.0000 C   0  0  0  0  0  0  0  0  0  0  0  0
   -6.0000    2.5981    0.0000 C   0  0  0  0  0  0  0  0  0  0  0  0
   -5.2500    1.2990    0.0000 C   0  0  0  0  0  0  0  0  0  0  0  0
   -3.7500   -1.2990    0.0000 C   0  0  0  0  0  0  0  0  0  0  0  0
   -5.2500   -1.2990    0.0000 C   0  0  0  0  0  0  0  0  0  0  0  0
   -6.0000   -2.5981    0.0000 C   0  0  0  0  0  0  0  0  0  0  0  0
   -5.2500   -3.8971    0.0000 C   0  0  0  0  0  0  0  0  0  0  0  0
   -6.0000   -5.1962    0.0000 Cl  0  0  0  0  0  0  0  0  0  0  0  0
   -3.7500   -3.8971    0.0000 C   0  0  0  0  0  0  0  0  0  0  0  0
   -3.0000   -2.5981    0.0000 C   0  0  0  0  0  0  0  0  0  0  0  0
  2  3  1  0
  3  4  2  0
  3  5  1  0
  5  6  1  0
  6  7  1  0
  7  8  1  0
  8  9  1  0
  9 10  1  0
 10 11  1  0
 11 12  1  0
 12 13  1  0
 13 14  1  0
 12 15  1  0
 15 16  1  0
 16 17  2  0
 17 18  1  0
 18 19  2  0
 19 20  1  0
 20 21  2  0
 15 22  1  0
 22 23  2  0
 23 24  1  0
 24 25  2  0
 25 26  1  0
 25 27  1  0
 27 28  2  0
 14  9  1  0
 21 16  1  0
 28 22  1  0
M  END
$$$$
543171
     RDKit          2D

 27 28  0  0  0  0  0  0  0  0999 V2000
    0.0000    2.5000    0.0000 Cl  0  0  0  0  0  0  0  0  0  0  0  0
   -3.7500   -1.2990    0.0000 O   0  0  0  0  0  0  0  0  0  0  0  0
   -3.0000   -2.5981    0.0000 C   0  0  0  0  0  0  0  0  0  0  0  0
   -3.7500   -3.8971    0.0000 C   0  0  0  0  0  0  0  0  0  0  0  0
   -5.2500   -3.8971    0.0000 C   0  0  0  0  0  0  0  0  0  0  0  0
   -6.0000   -5.1962    0.0000 C   0  0  0  0  0  0  0  0  0  0  0  0
   -5.2500   -6.4952    0.0000 C   0  0  0  0  0  0  0  0  0  0  0  0
   -3.7500   -6.4952    0.0000 C   0  0  0  0  0  0  0  0  0  0  0  0
   -3.0000   -5.1962    0.0000 N   0  0  0  0  0  0  0  0  0  0  0  0
   -1.5000   -2.5981    0.0000 C   0  0  0  0  0  0  0  0  0  0  0  0
   -0.7500   -3.8971    0.0000 C   0  0  0  0  0  0  0  0  0  0  0  0
    0.7500   -3.8971    0.0000 C   0  0  0  0  0  0  0  0  0  0  0  0
    1.5000   -2.5981    0.0000 N   0  0  0  0  0  0  0  0  0  0  0  0
    0.7500   -1.2990    0.0000 C   0  0  0  0  0  0  0  0  0  0  0  0
    1.5000    0.0000    0.0000 C   0  0  0  0  0  0  0  0  0  0  0  0
    0.7500    1.2990    0.0000 C   0  0  0  0  0  0  0  0  0  0  0  0
   -0.7500    1.2990    0.0000 C   0  0  0  0  0  0  0  0  0  0  0  0
   -1.5000    0.0000    0.0000 C   0  0  0  0  0  0  0  0  0  0  0  0
   -0.7500   -1.2990    0.0000 C   0  0  0  0  0  0  0  0  0  0  0  0
    3.0000    0.0000    0.0000 C   0  0  0  0  0  0  0  0  0  0  0  0
    4.5000    0.0000    0.0000 F   0  0  0  0  0  0  0  0  0  0  0  0
    3.0000    1.5000    0.0000 F   0  0  0  0  0  0  0  0  0  0  0  0
    3.0000   -1.5000    0.0000 F   0  0  0  0  0  0  0  0  0  0  0  0
    1.5000   -5.1962    0.0000 C   0  0  0  0  0  0  0  0  0  0  0  0
    2.2500   -6.4952    0.0000 F   0  0  0  0  0  0  0  0  0  0  0  0
    0.2010   -5.9462    0.0000 F   0  0  0  0  0  0  0  0  0  0  0  0
    2.7990   -4.4462    0.0000 F   0  0  0  0  0  0  0  0  0  0  0  0
  2  3  1  0
  3  4  1  0
  4  5  1  0
  5  6  1  0
  6  7  1  0
  7  8  1  0
  8  9  1  0
  3 10  1  0
 10 11  2  0
 11 12  1  0
 12 13  2  0
 13 14  1  0
 14 15  2  0
 15 16  1  0
 16 17  2  0
 17 18  1  0
 18 19  2  0
 15 20  1  0
 20 21  1  0
 20 22  1  0
 20 23  1  0
 12 24  1  0
 24 25  1  0
 24 26  1  0
 24 27  1  0
  9  4  1  0
 19 10  1  0
 19 14  1  0
M  END
$$$$
426067
     RDKit          2D

 24 25  0  0  0  0  0  0  0  0999 V2000
    5.6471    0.0000    0.0000 Cl  0  0  0  0  0  0  0  0  0  0  0  0
   -0.5490   -5.7452    0.0000 O   0  0  0  0  0  0  0  0  0  0  0  0
    0.7500   -6.4952    0.0000 C   0  0  0  0  0  0  0  0  0  0  0  0
    1.5000   -5.1962    0.0000 C   0  0  0  0  0  0  0  0  0  0  0  0
    0.7500   -3.8971    0.0000 C   0  0  0  0  0  0  0  0  0  0  0  0
    1.5000   -2.5981    0.0000 C   0  0  0  0  0  0  0  0  0  0  0  0
    0.7500   -1.2990    0.0000 N   0  0  0  0  0  0  0  0  0  0  0  0
    1.5000    0.0000    0.0000 C   0  0  0  0  0  0  0  0  0  0  0  0
    0.7500    1.2990    0.0000 C   0  0  0  0  0  0  0  0  0  0  0  0
   -0.7500    1.2990    0.0000 C   0  0  0  0  0  0  0  0  0  0  0  0
   -1.5000    0.0000    0.0000 C   0  0  0  0  0  0  0  0  0  0  0  0
   -0.7500   -1.2990    0.0000 C   0  0  0  0  0  0  0  0  0  0  0  0
   -0.0000   -7.7942    0.0000 C   0  0  0  0  0  0  0  0  0  0  0  0
   -1.5000   -7.7942    0.0000 C   0  0  0  0  0  0  0  0  0  0  0  0
   -2.2500   -9.0933    0.0000 C   0  0  0  0  0  0  0  0  0  0  0  0
   -1.5000  -10.3923    0.0000 C   0  0  0  0  0  0  0  0  0  0  0  0
   -0.0000  -10.3923    0.0000 C   0  0  0  0  0  0  0  0  0  0  0  0
    0.7500   -9.0933    0.0000 C   0  0  0  0  0  0  0  0  0  0  0  0
    2.0490   -7.2452    0.0000 C   0  0  0  0  0  0  0  0  0  0  0  0
    2.0490   -8.7452    0.0000 C   0  0  0  0  0  0  0  0  0  0  0  0
    3.3481   -9.4952    0.0000 C   0  0  0  0  0  0  0  0  0  0  0  0
    4.6471   -8.7452    0.0000 C   0  0  0  0  0  0  0  0  0  0  0  0
    4.6471   -7.2452    0.0000 C   0  0  0  0  0  0  0  0  0  0  0  0
    3.3481   -6.4952    0.0000 C   0  0  0  0  0  0  0  0  0  0  0  0
  2  3  1  0
  3  4  1  0
  4  5  1  0
  5  6  1  0
  6  7  1  0
  7  8  1  0
  8  9  1  0
  9 10  1  0
 10 11  1  0
 11 12  1  0
  3 13  1  0
 13 14  2  0
 14 15  1  0
 15 16  2  0
 16 17  1  0
 17 18  2  0
  3 19  1  0
 19 20  2  0
 20 21  1  0
 21 22  2  0
 22 23  1  0
 23 24  2  0
 12  7  1  0
 18 13  1  0
 24 19  1  0
M  END
$$$$
583519
     RDKit          2D

 22 23  0  0  0  0  0  0  0  0999 V2000
    7.3037    0.0000    0.0000 Cl  0  0  0  0  0  0  0  0  0  0  0  0
    0.2010   -3.3481    0.0000 O   0  0  0  0  0  0  0  0  0  0  0  0
    1.5000   -2.5981    0.0000 C   0  0  0  0  0  0  0  0  0  0  0  0
    2.2500   -3.8971    0.0000 C   0  0  0  0  0  0  0  0  0  0  0  0
    3.7500   -3.8971    0.0000 C   0  0  0  0  0  0  0  0  0  0  0  0
    4.5000   -5.1962    0.0000 N   0  0  0  0  0  0  0  0  0  0  0  0
    5.9918   -5.3529    0.0000 C   0  0  0  0  0  0  0  0  0  0  0  0
    6.3037   -6.8202    0.0000 C   0  0  0  0  0  0  0  0  0  0  0  0
    5.0046   -7.5702    0.0000 C   0  0  0  0  0  0  0  0  0  0  0  0
    3.8899   -6.5665    0.0000 C   0  0  0  0  0  0  0  0  0  0  0  0
    0.7500   -1.2990    0.0000 C   0  0  0  0  0  0  0  0  0  0  0  0
    1.5000    0.0000    0.0000 C   0  0  0  0  0  0  0  0  0  0  0  0
    0.7500    1.2990    0.0000 C   0  0  0  0  0  0  0  0  0  0  0  0
   -0.7500    1.2990    0.0000 C   0  0  0  0  0  0  0  0  0  0  0  0
   -1.5000    0.0000    0.0000 C   0  0  0  0  0  0  0  0  0  0  0  0
   -0.7500   -1.2990    0.0000 C   0  0  0  0  0  0  0  0  0  0  0  0
    2.7990   -1.8481    0.0000 C   0  0  0  0  0  0  0  0  0  0  0  0
    4.0981   -2.5981    0.0000 C   0  0  0  0  0  0  0  0  0  0  0  0
    5.3971   -1.8481    0.0000 C   0  0  0  0  0  0  0  0  0  0  0  0
    5.3971   -0.3481    0.0000 C   0  0  0  0  0  0  0  0  0  0  0  0
    4.0981    0.4019    0.0000 C   0  0  0  0  0  0  0  0  0  0  0  0
    2.7990   -0.3481    0.0000 C   0  0  0  0  0  0  0  0  0  0  0  0
  2  3  1  0
  3  4  1  0
  4  5  1  0
  5  6  1  0
  6  7  1  0
  7  8  1  0
  8  9  1  0
  9 10  1  0
  3 11  1  0
 11 12  1  0
 12 13  1  0
 13 14  1  0
 14 15  1  0
 15 16  1  0
  3 17  1  0
 17 18  2  0
 18 19  1  0
 19 20  2  0
 20 21  1  0
 21 22  2  0
 10  6  1  0
 16 11  1  0
 22 17  1  0
M  END
$$$$
674986
     RDKit          2D

 24 26  0  0  0  0  0  0  0  0999 V2000
    0.0000    3.1657    0.0000 Cl  0  0  0  0  0  0  0  0  0  0  0  0
    2.1527   -2.8452    0.0000 O   0  0  0  0  0  0  0  0  0  0  0  0
    3.0344   -1.6317    0.0000 C   0  0  0  0  0  0  0  0  0  0  0  0
    4.2479   -2.5134    0.0000 C   0  0  0  0  0  0  0  0  0  0  0  0
    5.6183   -1.9033    0.0000 C   0  0  0  0  0  0  0  0  0  0  0  0
    6.8318   -2.7849    0.0000 N   0  0  0  0  0  0  0  0  0  0  0  0
    6.6750   -4.2767    0.0000 C   0  0  0  0  0  0  0  0  0  0  0  0
    7.8885   -5.1584    0.0000 C   0  0  0  0  0  0  0  0  0  0  0  0
    9.2588   -4.5483    0.0000 C   0  0  0  0  0  0  0  0  0  0  0  0
    9.4156   -3.0565    0.0000 C   0  0  0  0  0  0  0  0  0  0  0  0
    8.2021   -2.1748    0.0000 C   0  0  0  0  0  0  0  0  0  0  0  0
    1.8209   -0.7500    0.0000 C   0  0  0  0  0  0  0  0  0  0  0  0
    1.8209    0.7500    0.0000 C   0  0  0  0  0  0  0  0  0  0  0  0
    0.3943    1.2135    0.0000 C   0  0  0  0  0  0  0  0  0  0  0  0
    1.2760    0.0000    0.0000 C   0  0  0  0  0  0  0  0  0  0  0  0
    0.3943   -1.2135    0.0000 C   0  0  0  0  0  0  0  0  0  0  0  0
   -1.0323   -0.7500    0.0000 C   0  0  0  0  0  0  0  0  0  0  0  0
   -1.0323    0.7500    0.0000 C   0  0  0  0  0  0  0  0  0  0  0  0
    3.9161   -0.4182    0.0000 C   0  0  0  0  0  0  0  0  0  0  0  0
    5.4079   -0.5749    0.0000 C   0  0  0  0  0  0  0  0  0  0  0  0
    6.2895    0.6386    0.0000 C   0  0  0  0  0  0  0  0  0  0  0  0
    5.6794    2.0089    0.0000 C   0  0  0  0  0  0  0  0  0  0  0  0
    4.1877    2.1657    0.0000 C   0  0  0  0  0  0  0  0  0  0  0  0
    3.3060    0.9522    0.0000 C   0  0  0  0  0  0  0  0  0  0  0  0
  2  3  1  0
  3  4  1  0
  4  5  1  0
  5  6  1  0
  6  7  1  0
  7  8  1  0
  8  9  1  0
  9 10  1  0
 10 11  1  0
  3 12  1  0
 12 13  1  0
 13 14  1  0
 14 15  1  0
 15 16  1  0
 16 17  1  0
 17 18  2  0
  3 19  1  0
 19 20  2  0
 20 21  1  0
 21 22  2  0
 22 23  1  0
 23 24  2  0
 11  6  1  0
 16 12  1  0
 18 14  1  0
 24 19  1  0
M  END
$$$$
674779
     RDKit          2D

 22 23  0  0  0  0  0  0  0  0999 V2000
    5.0537    0.0000    0.0000 Cl  0  0  0  0  0  0  0  0  0  0  0  0
    2.7990   -4.4462    0.0000 O   0  0  0  0  0  0  0  0  0  0  0  0
    1.5000   -5.1962    0.0000 C   0  0  0  0  0  0  0  0  0  0  0  0
    0.7500   -3.8971    0.0000 C   0  0  0  0  0  0  0  0  0  0  0  0
    1.5000   -2.5981    0.0000 C   0  0  0  0  0  0  0  0  0  0  0  0
    0.7500   -1.2990    0.0000 N   0  0  0  0  0  0  0  0  0  0  0  0
    1.5000    0.0000    0.0000 C   0  0  0  0  0  0  0  0  0  0  0  0
    0.7500    1.2990    0.0000 C   0  0  0  0  0  0  0  0  0  0  0  0
   -0.7500    1.2990    0.0000 C   0  0  0  0  0  0  0  0  0  0  0  0
   -1.5000    0.0000    0.0000 C   0  0  0  0  0  0  0  0  0  0  0  0
   -0.7500   -1.2990    0.0000 C   0  0  0  0  0  0  0  0  0  0  0  0
    2.2500   -6.4952    0.0000 C   0  0  0  0  0  0  0  0  0  0  0  0
    3.7418   -6.6520    0.0000 C   0  0  0  0  0  0  0  0  0  0  0  0
    4.0537   -8.1192    0.0000 C   0  0  0  0  0  0  0  0  0  0  0  0
    2.7546   -8.8692    0.0000 C   0  0  0  0  0  0  0  0  0  0  0  0
    1.6399   -7.8655    0.0000 C   0  0  0  0  0  0  0  0  0  0  0  0
    0.2010   -5.9462    0.0000 C   0  0  0  0  0  0  0  0  0  0  0  0
   -1.0981   -5.1962    0.0000 C   0  0  0  0  0  0  0  0  0  0  0  0
   -2.3971   -5.9462    0.0000 C   0  0  0  0  0  0  0  0  0  0  0  0
   -2.3971   -7.4462    0.0000 C   0  0  0  0  0  0  0  0  0  0  0  0
   -1.0981   -8.1962    0.0000 C   0  0  0  0  0  0  0  0  0  0  0  0
    0.2010   -7.4462    0.0000 C   0  0  0  0  0  0  0  0  0  0  0  0
  2  3  1  0
  3  4  1  0
  4  5  1  0
  5  6  1  0
  6  7  1  0
  7  8  1  0
  8  9  1  0
  9 10  1  0
 10 11  1  0
  3 12  1  0
 12 13  1  0
 13 14  1  0
 14 15  1  0
 15 16  1  0
  3 17  1  0
 17 18  2  0
 18 19  1  0
 19 20  2  0
 20 21  1  0
 21 22  2  0
 11  6  1  0
 16 12  1  0
 22 17  1  0
M  END
$$$$
150389
     RDKit          2D

 23 24  0  0  0  0  0  0  0  0999 V2000
    5.5000    0.0000    0.0000 Cl  0  0  0  0  0  0  0  0  0  0  0  0
    2.7990   -4.4462    0.0000 O   0  0  0  0  0  0  0  0  0  0  0  0
    1.5000   -5.1962    0.0000 C   0  0  0  0  0  0  0  0  0  0  0  0
    0.7500   -3.8971    0.0000 C   0  0  0  0  0  0  0  0  0  0  0  0
    1.5000   -2.5981    0.0000 C   0  0  0  0  0  0  0  0  0  0  0  0
    0.7500   -1.2990    0.0000 N   0  0  0  0  0  0  0  0  0  0  0  0
    1.5000    0.0000    0.0000 C   0  0  0  0  0  0  0  0  0  0  0  0
    0.7500    1.2990    0.0000 C   0  0  0  0  0  0  0  0  0  0  0  0
   -0.7500    1.2990    0.0000 C   0  0  0  0  0  0  0  0  0  0  0  0
   -1.5000    0.0000    0.0000 C   0  0  0  0  0  0  0  0  0  0  0  0
   -0.7500   -1.2990    0.0000 C   0  0  0  0  0  0  0  0  0  0  0  0
    2.2500   -6.4952    0.0000 C   0  0  0  0  0  0  0  0  0  0  0  0
    1.5000   -7.7942    0.0000 C   0  0  0  0  0  0  0  0  0  0  0  0
    2.2500   -9.0933    0.0000 C   0  0  0  0  0  0  0  0  0  0  0  0
    3.7500   -9.0933    0.0000 C   0  0  0  0  0  0  0  0  0  0  0  0
    4.5000   -7.7942    0.0000 C   0  0  0  0  0  0  0  0  0  0  0  0
    3.7500   -6.4952    0.0000 C   0  0  0  0  0  0  0  0  0  0  0  0
    0.2010   -5.9462    0.0000 C   0  0  0  0  0  0  0  0  0  0  0  0
   -1.0981   -5.1962    0.0000 C   0  0  0  0  0  0  0  0  0  0  0  0
   -2.3971   -5.9462    0.0000 C   0  0  0  0  0  0  0  0  0  0  0  0
   -2.3971   -7.4462    0.0000 C   0  0  0  0  0  0  0  0  0  0  0  0
   -1.0981   -8.1962    0.0000 C   0  0  0  0  0  0  0  0  0  0  0  0
    0.2010   -7.4462    0.0000 C   0  0  0  0  0  0  0  0  0  0  0  0
  2  3  1  0
  3  4  1  0
  4  5  1  0
  5  6  1  0
  6  7  1  0
  7  8  1  0
  8  9  1  0
  9 10  1  0
 10 11  1  0
  3 12  1  0
 12 13  1  0
 13 14  1  0
 14 15  1  0
 15 16  1  0
 16 17  1  0
  3 18  1  0
 18 19  2  0
 19 20  1  0
 20 21  2  0
 21 22  1  0
 22 23  2  0
 11  6  1  0
 17 12  1  0
 23 18  1  0
M  END
$$$$
675682
     RDKit          2D

 30 32  0  0  0  0  0  0  0  0999 V2000
    4.0000    0.0000    0.0000 Cl  0  0  0  0  0  0  0  0  0  0  0  0
    3.0000   -7.7942    0.0000 O   0  0  0  0  0  0  0  0  0  0  0  0
    1.5000   -7.7942    0.0000 C   0  0  0  0  0  0  0  0  0  0  0  0
    0.7500   -6.4952    0.0000 C   0  0  0  0  0  0  0  0  0  0  0  0
    1.5000   -5.1962    0.0000 N   0  0  0  0  0  0  0  0  0  0  0  0
    0.7500   -3.8971    0.0000 C   0  0  0  0  0  0  0  0  0  0  0  0
    1.5000   -2.5981    0.0000 C   0  0  0  0  0  0  0  0  0  0  0  0
    3.0000   -2.5981    0.0000 O   0  0  0  0  0  0  0  0  0  0  0  0
    0.7500   -1.2990    0.0000 C   0  0  0  0  0  0  0  0  0  0  0  0
    1.5000    0.0000    0.0000 C   0  0  0  0  0  0  0  0  0  0  0  0
    0.7500    1.2990    0.0000 C   0  0  0  0  0  0  0  0  0  0  0  0
   -0.7500    1.2990    0.0000 C   0  0  0  0  0  0  0  0  0  0  0  0
   -1.5000    2.5981    0.0000 C   0  0  0  0  0  0  0  0  0  0  0  0
   -3.0000    2.5981    0.0000 C   0  0  0  0  0  0  0  0  0  0  0  0
   -3.7500    3.8971    0.0000 F   0  0  0  0  0  0  0  0  0  0  0  0
   -3.7500    1.2990    0.0000 C   0  0  0  0  0  0  0  0  0  0  0  0
   -3.0000    0.0000    0.0000 C   0  0  0  0  0  0  0  0  0  0  0  0
   -1.5000    0.0000    0.0000 C   0  0  0  0  0  0  0  0  0  0  0  0
   -0.7500   -1.2990    0.0000 O   0  0  0  0  0  0  0  0  0  0  0  0
    0.7500   -9.0933    0.0000 C   0  0  0  0  0  0  0  0  0  0  0  0
   -0.7500   -9.0933    0.0000 C   0  0  0  0  0  0  0  0  0  0  0  0
   -1.5000  -10.3923    0.0000 C   0  0  0  0  0  0  0  0  0  0  0  0
   -0.7500  -11.6913    0.0000 C   0  0  0  0  0  0  0  0  0  0  0  0
   -1.5000  -12.9904    0.0000 C   0  0  0  0  0  0  0  0  0  0  0  0
   -0.7500  -14.2894    0.0000 C   0  0  0  0  0  0  0  0  0  0  0  0
   -1.5000  -15.5885    0.0000 F   0  0  0  0  0  0  0  0  0  0  0  0
    0.7500  -14.2894    0.0000 C   0  0  0  0  0  0  0  0  0  0  0  0
    1.5000  -12.9904    0.0000 C   0  0  0  0  0  0  0  0  0  0  0  0
    0.7500  -11.6913    0.0000 C   0  0  0  0  0  0  0  0  0  0  0  0
    1.5000  -10.3923    0.0000 O   0  0  0  0  0  0  0  0  0  0  0  0
  2  3  1  0
  3  4  1  0
  4  5  1  0
  5  6  1  0
  6  7  1  0
  7  8  1  0
  7  9  1  0
  9 10  1  0
 10 11  1  0
 11 12  1  0
 12 13  2  0
 13 14  1  0
 14 15  1  0
 14 16  2  0
 16 17  1  0
 17 18  2  0
 18 19  1  0
  3 20  1  0
 20 21  1  0
 21 22  1  0
 22 23  1  0
 23 24  2  0
 24 25  1  0
 25 26  1  0
 25 27  2  0
 27 28  1  0
 28 29  2  0
 29 30  1  0
 19  9  1  0
 18 12  1  0
 30 20  1  0
 29 23  1  0
M  END
$$$$
158276
     RDKit          2D

 35 38  0  0  0  0  0  0  0  0999 V2000
    0.0000    3.5981    0.0000 Cl  0  0  0  0  0  0  0  0  0  0  0  0
    0.0000   -9.6073    0.0000 O   0  0  0  0  0  0  0  0  0  0  0  0
    0.0000   -8.1073    0.0000 C   0  0  0  0  0  0  0  0  0  0  0  0
   -1.2990   -7.3573    0.0000 C   0  0  0  0  0  0  0  0  0  0  0  0
   -1.2990   -5.8573    0.0000 C   0  0  0  0  0  0  0  0  0  0  0  0
   -0.0000   -5.1073    0.0000 C   0  0  0  0  0  0  0  0  0  0  0  0
    1.2990   -5.8573    0.0000 C   0  0  0  0  0  0  0  0  0  0  0  0
    1.2990   -7.3573    0.0000 C   0  0  0  0  0  0  0  0  0  0  0  0
   -0.0000   -3.6073    0.0000 C   0  0  0  0  0  0  0  0  0  0  0  0
    1.2135   -2.7256    0.0000 S   0  0  0  0  0  0  0  0  0  0  0  0
    0.7500   -1.2990    0.0000 C   0  0  0  0  0  0  0  0  0  0  0  0
    1.5000    0.0000    0.0000 C   0  0  0  0  0  0  0  0  0  0  0  0
    0.7500    1.2990    0.0000 C   0  0  0  0  0  0  0  0  0  0  0  0
    1.5000    2.5981    0.0000 O   0  0  0  0  0  0  0  0  0  0  0  0
   -0.7500    1.2990    0.0000 C   0  0  0  0  0  0  0  0  0  0  0  0
   -1.5000    0.0000    0.0000 C   0  0  0  0  0  0  0  0  0  0  0  0
   -0.7500   -1.2990    0.0000 C   0  0  0  0  0  0  0  0  0  0  0  0
   -1.2135   -2.7256    0.0000 C   0  0  0  0  0  0  0  0  0  0  0  0
   -2.6401   -3.1891    0.0000 C   0  0  0  0  0  0  0  0  0  0  0  0
   -2.9520   -4.6564    0.0000 O   0  0  0  0  0  0  0  0  0  0  0  0
   -3.7548   -2.1855    0.0000 C   0  0  0  0  0  0  0  0  0  0  0  0
   -5.1814   -2.6490    0.0000 C   0  0  0  0  0  0  0  0  0  0  0  0
   -6.2961   -1.6453    0.0000 C   0  0  0  0  0  0  0  0  0  0  0  0
   -5.9843   -0.1781    0.0000 C   0  0  0  0  0  0  0  0  0  0  0  0
   -7.0990    0.8256    0.0000 O   0  0  0  0  0  0  0  0  0  0  0  0
   -8.5256    0.3621    0.0000 C   0  0  0  0  0  0  0  0  0  0  0  0
   -9.6403    1.3658    0.0000 C   0  0  0  0  0  0  0  0  0  0  0  0
  -11.0669    0.9023    0.0000 N   0  0  0  0  0  0  0  0  0  0  0  0
  -11.3787   -0.5649    0.0000 C   0  0  0  0  0  0  0  0  0  0  0  0
  -12.8053   -1.0285    0.0000 C   0  0  0  0  0  0  0  0  0  0  0  0
  -13.9200   -0.0248    0.0000 C   0  0  0  0  0  0  0  0  0  0  0  0
  -13.6082    1.4425    0.0000 C   0  0  0  0  0  0  0  0  0  0  0  0
  -12.1816    1.9060    0.0000 C   0  0  0  0  0  0  0  0  0  0  0  0
   -4.5577    0.2855    0.0000 C   0  0  0  0  0  0  0  0  0  0  0  0
   -3.4430   -0.7182    0.0000 C   0  0  0  0  0  0  0  0  0  0  0  0
  2  3  1  0
  3  4  2  0
  4  5  1  0
  5  6  2  0
  6  7  1  0
  7  8  2  0
  6  9  1  0
  9 10  1  0
 10 11  1  0
 11 12  2  0
 12 13  1  0
 13 14  1  0
 13 15  2  0
 15 16  1  0
 16 17  2  0
 17 18  1  0
 18 19  1  0
 19 20  2  0
 19 21  1  0
 21 22  2  0
 22 23  1  0
 23 24  2  0
 24 25  1  0
 25 26  1  0
 26 27  1  0
 27 28  1  0
 28 29  1  0
 29 30  1  0
 30 31  1  0
 31 32  1  0
 32 33  1  0
 24 34  1  0
 34 35  2  0
  8  3  1  0
 18  9  2  0
 17 11  1  0
 35 21  1  0
 33 28  1  0
M  END
$$$$
675100
     RDKit          2D

 26 30  0  0  0  0  0  0  0  0999 V2000
    0.0000    7.4952    0.0000 Cl  0  0  0  0  0  0  0  0  0  0  0  0
    3.0000    0.0000    0.0000 O   0  0  0  0  0  0  0  0  0  0  0  0
    1.5000    0.0000    0.0000 C   0  0  0  0  0  0  0  0  0  0  0  0
    0.7500   -1.2990    0.0000 C   0  0  0  0  0  0  0  0  0  0  0  0
   -0.7500   -1.2990    0.0000 C   0  0  0  0  0  0  0  0  0  0  0  0
   -1.5000    0.0000    0.0000 C   0  0  0  0  0  0  0  0  0  0  0  0
   -3.0000    0.0000    0.0000 C   0  0  0  0  0  0  0  0  0  0  0  0
   -3.7500    1.2990    0.0000 C   0  0  0  0  0  0  0  0  0  0  0  0
   -4.5000    2.5981    0.0000 N   0  0  0  0  0  0  0  0  0  0  0  0
   -6.0000    2.5981    0.0000 C   0  0  0  0  0  0  0  0  0  0  0  0
   -6.7500    1.2990    0.0000 C   0  0  0  0  0  0  0  0  0  0  0  0
   -6.7500   -0.2010    0.0000 C   0  0  0  0  0  0  0  0  0  0  0  0
   -8.0490    0.5490    0.0000 C   0  0  0  0  0  0  0  0  0  0  0  0
   -3.7500    3.8971    0.0000 C   0  0  0  0  0  0  0  0  0  0  0  0
   -2.2500    3.8971    0.0000 C   0  0  0  0  0  0  0  0  0  0  0  0
   -1.5000    2.5981    0.0000 C   0  0  0  0  0  0  0  0  0  0  0  0
   -0.7500    3.8971    0.0000 C   0  0  0  0  0  0  0  0  0  0  0  0
    0.6203    3.2870    0.0000 O   0  0  0  0  0  0  0  0  0  0  0  0
    0.7500    1.2990    0.0000 C   0  0  0  0  0  0  0  0  0  0  0  0
   -0.7500    1.2990    0.0000 C   0  0  0  0  0  0  0  0  0  0  0  0
   -1.8500    4.5899    0.0000 C   0  0  0  0  0  0  0  0  0  0  0  0
   -0.7500    6.4952    0.0000 O   0  0  0  0  0  0  0  0  0  0  0  0
   -2.6500    4.5899    0.0000 C   0  0  0  0  0  0  0  0  0  0  0  0
   -3.0500    3.8971    0.0000 C   0  0  0  0  0  0  0  0  0  0  0  0
   -3.0000    2.5981    0.0000 C   0  0  0  0  0  0  0  0  0  0  0  0
   -3.7735    2.7910    0.0000 O   0  0  0  0  0  0  0  0  0  0  0  0
  2  3  1  0
  3  4  2  0
  4  5  1  0
  5  6  2  0
  6  7  1  0
  8  7  1  1
  8  9  1  0
  9 10  1  0
 10 11  1  0
 11 12  1  0
 12 13  1  0
  9 14  1  0
 14 15  1  0
 16 15  1  1
 16 17  1  0
 17 18  1  6
 18 19  1  0
 19 20  2  0
 17 21  1  0
 21 22  2  0
 21 23  1  0
 23 24  1  0
 24 25  1  0
 25 26  1  1
 19  3  1  0
 20  6  1  0
 25  8  1  0
 13 11  1  0
 20 16  1  0
 25 16  1  0
M  END
$$$$
551147
     RDKit          2D

 25 28  0  0  0  0  0  0  0  0999 V2000
    0.0000    7.4952    0.0000 Cl  0  0  0  0  0  0  0  0  0  0  0  0
    3.0000    0.0000    0.0000 O   0  0  0  0  0  0  0  0  0  0  0  0
    1.5000    0.0000    0.0000 C   0  0  0  0  0  0  0  0  0  0  0  0
    0.7500   -1.2990    0.0000 C   0  0  0  0  0  0  0  0  0  0  0  0
   -0.7500   -1.2990    0.0000 C   0  0  0  0  0  0  0  0  0  0  0  0
   -1.5000    0.0000    0.0000 C   0  0  0  0  0  0  0  0  0  0  0  0
   -3.0000    0.0000    0.0000 C   0  0  0  0  0  0  0  0  0  0  0  0
   -3.7500    1.2990    0.0000 C   0  0  0  0  0  0  0  0  0  0  0  0
   -4.5000    2.5981    0.0000 N   0  0  0  0  0  0  0  0  0  0  0  0
   -6.0000    2.5981    0.0000 C   0  0  0  0  0  0  0  0  0  0  0  0
   -6.7500    1.2990    0.0000 C   0  0  0  0  0  0  0  0  0  0  0  0
   -8.2500    1.2990    0.0000 C   0  0  0  0  0  0  0  0  0  0  0  0
   -3.7500    3.8971    0.0000 C   0  0  0  0  0  0  0  0  0  0  0  0
   -2.2500    3.8971    0.0000 C   0  0  0  0  0  0  0  0  0  0  0  0
   -1.5000    2.5981    0.0000 C   0  0  0  0  0  0  0  0  0  0  0  0
   -0.7500    3.8971    0.0000 C   0  0  0  0  0  0  0  0  0  0  0  0
    0.6203    3.2870    0.0000 O   0  0  0  0  0  0  0  0  0  0  0  0
    0.7500    1.2990    0.0000 C   0  0  0  0  0  0  0  0  0  0  0  0
   -0.7500    1.2990    0.0000 C   0  0  0  0  0  0  0  0  0  0  0  0
   -1.0404    3.1010    0.0000 C   0  0  0  0  0  0  0  0  0  0  0  0
   -0.7500    6.4952    0.0000 O   0  0  0  0  0  0  0  0  0  0  0  0
   -1.9500    3.3775    0.0000 C   0  0  0  0  0  0  0  0  0  0  0  0
   -2.1654    2.4515    0.0000 C   0  0  0  0  0  0  0  0  0  0  0  0
   -3.0000    2.5981    0.0000 C   0  0  0  0  0  0  0  0  0  0  0  0
   -4.4554    2.9610    0.0000 O   0  0  0  0  0  0  0  0  0  0  0  0
  2  3  1  0
  3  4  2  0
  4  5  1  0
  5  6  2  0
  6  7  1  0
  8  7  1  1
  8  9  1  0
  9 10  1  0
 10 11  1  0
 11 12  2  0
  9 13  1  0
 13 14  1  0
 15 14  1  1
 15 16  1  0
 16 17  1  1
 17 18  1  0
 18 19  2  0
 16 20  1  0
 20 21  2  0
 20 22  1  0
 22 23  1  0
 23 24  1  0
 24 25  1  6
 18  3  1  0
 19  6  1  0
 24  8  1  0
 19 15  1  0
 24 15  1  0
M  END
$$$$
674743
     RDKit          2D

 31 33  0  0  0  0  0  0  0  0999 V2000
    9.2500    0.0000    0.0000 Cl  0  0  0  0  0  0  0  0  0  0  0  0
    8.2500  -11.6913    0.0000 O   0  0  0  0  0  0  0  0  0  0  0  0
    7.5000  -10.3923    0.0000 C   0  0  0  0  0  0  0  0  0  0  0  0
    8.2500   -9.0933    0.0000 C   0  0  0  0  0  0  0  0  0  0  0  0
    7.5000   -7.7942    0.0000 N   0  0  0  0  0  0  0  0  0  0  0  0
    6.0000   -7.7942    0.0000 C   0  0  0  0  0  0  0  0  0  0  0  0
    5.2500   -6.4952    0.0000 C   0  0  0  0  0  0  0  0  0  0  0  0
    6.0000   -5.1962    0.0000 N   0  0  0  0  0  0  0  0  0  0  0  0
    5.2500   -3.8971    0.0000 C   0  0  0  0  0  0  0  0  0  0  0  0
    3.7500   -3.8971    0.0000 C   0  0  0  0  0  0  0  0  0  0  0  0
    3.0000   -2.5981    0.0000 C   0  0  0  0  0  0  0  0  0  0  0  0
    1.5000   -2.5981    0.0000 N   0  0  0  0  0  0  0  0  0  0  0  0
    0.7500   -1.2990    0.0000 C   0  0  0  0  0  0  0  0  0  0  0  0
    1.5000    0.0000    0.0000 C   0  0  0  0  0  0  0  0  0  0  0  0
    0.7500    1.2990    0.0000 C   0  0  0  0  0  0  0  0  0  0  0  0
   -0.7500    1.2990    0.0000 C   0  0  0  0  0  0  0  0  0  0  0  0
   -1.5000    0.0000    0.0000 C   0  0  0  0  0  0  0  0  0  0  0  0
   -0.7500   -1.2990    0.0000 C   0  0  0  0  0  0  0  0  0  0  0  0
   -1.5000   -2.5981    0.0000 S   0  0  0  0  0  0  0  0  0  0  0  0
   -0.7500   -3.8971    0.0000 C   0  0  0  0  0  0  0  0  0  0  0  0
   -1.5000   -5.1962    0.0000 C   0  0  0  0  0  0  0  0  0  0  0  0
   -0.7500   -6.4952    0.0000 C   0  0  0  0  0  0  0  0  0  0  0  0
    0.7500   -6.4952    0.0000 C   0  0  0  0  0  0  0  0  0  0  0  0
    1.5000   -5.1962    0.0000 C   0  0  0  0  0  0  0  0  0  0  0  0
    0.7500   -3.8971    0.0000 C   0  0  0  0  0  0  0  0  0  0  0  0
    1.5000   -7.7942    0.0000 C   0  0  0  0  0  0  0  0  0  0  0  0
    2.2500   -9.0933    0.0000 F   0  0  0  0  0  0  0  0  0  0  0  0
    0.2010   -8.5442    0.0000 F   0  0  0  0  0  0  0  0  0  0  0  0
    2.7990   -7.0442    0.0000 F   0  0  0  0  0  0  0  0  0  0  0  0
    7.5000   -5.1962    0.0000 C   0  0  0  0  0  0  0  0  0  0  0  0
    8.2500   -6.4952    0.0000 C   0  0  0  0  0  0  0  0  0  0  0  0
  2  3  1  0
  3  4  1  0
  4  5  1  0
  5  6  1  0
  6  7  1  0
  7  8  1  0
  8  9  1  0
  9 10  1  0
 10 11  1  0
 11 12  1  0
 12 13  1  0
 13 14  2  0
 14 15  1  0
 15 16  2  0
 16 17  1  0
 17 18  2  0
 18 19  1  0
 19 20  1  0
 20 21  2  0
 21 22  1  0
 22 23  2  0
 23 24  1  0
 24 25  2  0
 23 26  1  0
 26 27  1  0
 26 28  1  0
 26 29  1  0
  8 30  1  0
 30 31  1  0
 31  5  1  0
 25 12  1  0
 18 13  1  0
 25 20  1  0
M  END
$$$$
674958
     RDKit          2D

 27 28  0  0  0  0  0  0  0  0999 V2000
    0.0000    4.8971    0.0000 Cl  0  0  0  0  0  0  0  0  0  0  0  0
    8.2500   -3.8971    0.0000 O   0  0  0  0  0  0  0  0  0  0  0  0
    7.5000   -2.5981    0.0000 C   0  0  0  0  0  0  0  0  0  0  0  0
    6.0000   -2.5981    0.0000 C   0  0  0  0  0  0  0  0  0  0  0  0
    5.2500   -1.2990    0.0000 O   0  0  0  0  0  0  0  0  0  0  0  0
    3.7500   -1.2990    0.0000 C   0  0  0  0  0  0  0  0  0  0  0  0
    3.0000    0.0000    0.0000 C   0  0  0  0  0  0  0  0  0  0  0  0
    1.5000    0.0000    0.0000 N   0  0  0  0  0  0  0  0  0  0  0  0
    0.7500   -1.2990    0.0000 C   0  0  0  0  0  0  0  0  0  0  0  0
   -0.7500   -1.2990    0.0000 C   0  0  0  0  0  0  0  0  0  0  0  0
   -1.5000    0.0000    0.0000 N   0  0  0  0  0  0  0  0  0  0  0  0
   -0.7500    1.2990    0.0000 C   0  0  0  0  0  0  0  0  0  0  0  0
    0.7500    1.2990    0.0000 C   0  0  0  0  0  0  0  0  0  0  0  0
   -3.0000    0.0000    0.0000 C   0  0  0  0  0  0  0  0  0  0  0  0
   -3.7500    1.2990    0.0000 C   0  0  0  0  0  0  0  0  0  0  0  0
   -3.0000    2.5981    0.0000 C   0  0  0  0  0  0  0  0  0  0  0  0
   -3.7500    3.8971    0.0000 C   0  0  0  0  0  0  0  0  0  0  0  0
   -5.2500    3.8971    0.0000 C   0  0  0  0  0  0  0  0  0  0  0  0
   -6.0000    2.5981    0.0000 C   0  0  0  0  0  0  0  0  0  0  0  0
   -5.2500    1.2990    0.0000 C   0  0  0  0  0  0  0  0  0  0  0  0
   -3.7500   -1.2990    0.0000 C   0  0  0  0  0  0  0  0  0  0  0  0
   -5.2500   -1.2990    0.0000 C   0  0  0  0  0  0  0  0  0  0  0  0
   -6.0000   -2.5981    0.0000 C   0  0  0  0  0  0  0  0  0  0  0  0
   -5.2500   -3.8971    0.0000 C   0  0  0  0  0  0  0  0  0  0  0  0
   -6.0000   -5.1962    0.0000 Cl  0  0  0  0  0  0  0  0  0  0  0  0
   -3.7500   -3.8971    0.0000 C   0  0  0  0  0  0  0  0  0  0  0  0
   -3.0000   -2.5981    0.0000 C   0  0  0  0  0  0  0  0  0  0  0  0
  2  3  1  0
  3  4  1  0
  4  5  1  0
  5  6  1  0
  6  7  1  0
  7  8  1  0
  8  9  1  0
  9 10  1  0
 10 11  1  0
 11 12  1  0
 12 13  1  0
 11 14  1  0
 14 15  1  0
 15 16  2  0
 16 17  1  0
 17 18  2  0
 18 19  1  0
 19 20  2  0
 14 21  1  0
 21 22  2  0
 22 23  1  0
 23 24  2  0
 24 25  1  0
 24 26  1  0
 26 27  2  0
 13  8  1  0
 20 15  1  0
 27 21  1  0
M  END
$$$$
504310
     RDKit          2D

 18 19  0  0  0  0  0  0  0  0999 V2000
    3.7500   -3.8971    0.0000 Cl  0  0  0  0  0  0  0  0  0  0  0  0
    3.0000   -2.5981    0.0000 C   0  0  0  0  0  0  0  0  0  0  0  0
    3.7500   -1.2990    0.0000 Cl  0  0  0  0  0  0  0  0  0  0  0  0
    1.5000   -2.5981    0.0000 C   0  0  0  0  0  0  0  0  0  0  0  0
    0.7500   -1.2990    0.0000 C   0  0  0  0  0  0  0  0  0  0  0  0
    1.5000    0.0000    0.0000 C   0  0  0  0  0  0  0  0  0  0  0  0
    0.7500    1.2990    0.0000 C   0  0  0  0  0  0  0  0  0  0  0  0
   -0.7500    1.2990    0.0000 C   0  0  0  0  0  0  0  0  0  0  0  0
   -1.5000    2.5981    0.0000 Cl  0  0  0  0  0  0  0  0  0  0  0  0
   -1.5000    0.0000    0.0000 C   0  0  0  0  0  0  0  0  0  0  0  0
   -0.7500   -1.2990    0.0000 C   0  0  0  0  0  0  0  0  0  0  0  0
    0.7500   -3.8971    0.0000 C   0  0  0  0  0  0  0  0  0  0  0  0
   -0.7500   -3.8971    0.0000 C   0  0  0  0  0  0  0  0  0  0  0  0
   -1.5000   -5.1962    0.0000 C   0  0  0  0  0  0  0  0  0  0  0  0
   -0.7500   -6.4952    0.0000 C   0  0  0  0  0  0  0  0  0  0  0  0
    0.7500   -6.4952    0.0000 C   0  0  0  0  0  0  0  0  0  0  0  0
    1.5000   -5.1962    0.0000 C   0  0  0  0  0  0  0  0  0  0  0  0
    3.0000   -5.1962    0.0000 Cl  0  0  0  0  0  0  0  0  0  0  0  0
  1  2  1  0
  2  3  1  0
  2  4  1  0
  4  5  1  0
  5  6  2  0
  6  7  1  0
  7  8  2  0
  8  9  1  0
  8 10  1  0
 10 11  2  0
  4 12  1  0
 12 13  2  0
 13 14  1  0
 14 15  2  0
 15 16  1  0
 16 17  2  0
 17 18  1  0
 11  5  1  0
 17 12  1  0
M  END
$$$$
399292
     RDKit          2D

 16 17  0  0  0  0  0  0  0  0999 V2000
    3.0000    0.0000    0.0000 Cl  0  0  0  0  0  0  0  0  0  0  0  0
    1.5000    0.0000    0.0000 C   0  0  0  0  0  0  0  0  0  0  0  0
    0.7500   -1.2990    0.0000 C   0  0  0  0  0  0  0  0  0  0  0  0
    1.5000   -2.5981    0.0000 C   0  0  0  0  0  0  0  0  0  0  0  0
    0.7500   -3.8971    0.0000 N   0  0  0  0  0  0  0  0  0  0  0  0
    1.3601   -5.2674    0.0000 C   0  0  0  0  0  0  0  0  0  0  0  0
    0.2454   -6.2711    0.0000 C   0  0  0  0  0  0  0  0  0  0  0  0
   -1.0537   -5.5211    0.0000 C   0  0  0  0  0  0  0  0  0  0  0  0
   -0.7418   -4.0539    0.0000 C   0  0  0  0  0  0  0  0  0  0  0  0
   -1.7455   -2.9392    0.0000 N   0  0  0  0  0  0  0  0  0  0  0  0
   -0.7500   -1.2990    0.0000 N   0  0  0  0  0  0  0  0  0  0  0  0
   -1.5000    0.0000    0.0000 C   0  0  0  0  0  0  0  0  0  0  0  0
   -3.0000    0.0000    0.0000 O   0  0  0  0  0  0  0  0  0  0  0  0
   -0.7500    1.2990    0.0000 N   0  0  0  0  0  0  0  0  0  0  0  0
    0.7500    1.2990    0.0000 C   0  0  0  0  0  0  0  0  0  0  0  0
    1.5000    2.5981    0.0000 O   0  0  0  0  0  0  0  0  0  0  0  0
  1  2  1  0
  2  3  2  0
  3  4  1  0
  4  5  1  0
  5  6  1  0
  6  7  1  0
  7  8  1  0
  8  9  1  0
  9 10  2  0
  3 11  1  0
 11 12  1  0
 12 13  2  0
 12 14  1  0
 14 15  1  0
 15 16  2  0
 15  2  1  0
  9  5  1  0
M  END
$$$$
33664
     RDKit          2D

 28 32  0  0  0  0  0  0  0  0999 V2000
   -0.0967    5.1517    0.0000 Cl  0  0  0  0  0  0  0  0  0  0  0  0
   -0.4086    3.6844    0.0000 C   0  0  0  0  0  0  0  0  0  0  0  0
    0.7062    2.6807    0.0000 C   0  0  0  0  0  0  0  0  0  0  0  0
    0.3943    1.2135    0.0000 C   0  0  0  0  0  0  0  0  0  0  0  0
    1.2760    0.0000    0.0000 N   0  0  0  0  0  0  0  0  0  0  0  0
    0.3943   -1.2135    0.0000 C   0  0  0  0  0  0  0  0  0  0  0  0
    0.8578   -2.6401    0.0000 O   0  0  0  0  0  0  0  0  0  0  0  0
   -1.0323   -0.7500    0.0000 C   0  0  0  0  0  0  0  0  0  0  0  0
   -1.0323    0.7500    0.0000 C   0  0  0  0  0  0  0  0  0  0  0  0
   -2.1470    1.7537    0.0000 C   0  0  0  0  0  0  0  0  0  0  0  0
   -1.8351    3.2209    0.0000 C   0  0  0  0  0  0  0  0  0  0  0  0
   -2.9499    4.2246    0.0000 C   0  0  0  0  0  0  0  0  0  0  0  0
   -2.6380    5.6918    0.0000 C   0  0  0  0  0  0  0  0  0  0  0  0
   -3.7527    6.6955    0.0000 N   0  0  0  0  0  0  0  0  0  0  0  0
   -3.4408    8.1628    0.0000 C   0  0  0  0  0  0  0  0  0  0  0  0
   -4.5556    9.1664    0.0000 C   0  0  0  0  0  0  0  0  0  0  0  0
   -5.9821    8.7029    0.0000 N   0  0  0  0  0  0  0  0  0  0  0  0
   -6.2940    7.2357    0.0000 C   0  0  0  0  0  0  0  0  0  0  0  0
   -5.1793    6.2320    0.0000 C   0  0  0  0  0  0  0  0  0  0  0  0
   -7.0969    9.7066    0.0000 C   0  0  0  0  0  0  0  0  0  0  0  0
   -8.5641    9.3948    0.0000 N   0  0  0  0  0  0  0  0  0  0  0  0
   -9.3141   10.6938    0.0000 S   0  0  0  0  0  0  0  0  0  0  0  0
   -8.3104   11.8085    0.0000 C   0  0  0  0  0  0  0  0  0  0  0  0
   -8.4672   13.3003    0.0000 C   0  0  0  0  0  0  0  0  0  0  0  0
   -7.2536   14.1820    0.0000 C   0  0  0  0  0  0  0  0  0  0  0  0
   -5.8833   13.5719    0.0000 C   0  0  0  0  0  0  0  0  0  0  0  0
   -5.7265   12.0801    0.0000 C   0  0  0  0  0  0  0  0  0  0  0  0
   -6.9401   11.1984    0.0000 C   0  0  0  0  0  0  0  0  0  0  0  0
  1  2  1  0
  2  3  2  0
  3  4  1  0
  4  5  1  0
  5  6  1  0
  6  7  2  0
  6  8  1  0
  8  9  1  0
  9 10  1  0
 10 11  2  0
 11 12  1  0
 12 13  1  0
 13 14  1  0
 14 15  1  0
 15 16  1  0
 16 17  1  0
 17 18  1  0
 18 19  1  0
 17 20  1  0
 20 21  2  0
 21 22  1  0
 22 23  1  0
 23 24  2  0
 24 25  1  0
 25 26  2  0
 26 27  1  0
 27 28  2  0
 11  2  1  0
  9  4  2  0
 19 14  1  0
 28 20  1  0
 28 23  1  0
M  END
$$$$
328601
     RDKit          2D

 29 32  0  0  0  0  0  0  0  0999 V2000
   -4.9306   -9.1177    0.0000 Cl  0  0  0  0  0  0  0  0  0  0  0  0
   -3.4634   -9.4296    0.0000 C   0  0  0  0  0  0  0  0  0  0  0  0
   -2.8533  -10.7999    0.0000 C   0  0  0  0  0  0  0  0  0  0  0  0
   -1.3615  -10.6431    0.0000 C   0  0  0  0  0  0  0  0  0  0  0  0
   -1.0496   -9.1759    0.0000 C   0  0  0  0  0  0  0  0  0  0  0  0
   -2.3486   -8.4259    0.0000 S   0  0  0  0  0  0  0  0  0  0  0  0
    0.3207   -8.5658    0.0000 C   0  0  0  0  0  0  0  0  0  0  0  0
    1.5342   -9.4474    0.0000 O   0  0  0  0  0  0  0  0  0  0  0  0
    0.4775   -7.0740    0.0000 N   0  0  0  0  0  0  0  0  0  0  0  0
    1.8478   -6.4639    0.0000 C   0  0  0  0  0  0  0  0  0  0  0  0
    2.0046   -4.9721    0.0000 C   0  0  0  0  0  0  0  0  0  0  0  0
    0.8899   -3.9684    0.0000 C   0  0  0  0  0  0  0  0  0  0  0  0
    1.5000   -2.5981    0.0000 N   0  0  0  0  0  0  0  0  0  0  0  0
    2.9918   -2.7549    0.0000 C   0  0  0  0  0  0  0  0  0  0  0  0
    3.9955   -1.6402    0.0000 O   0  0  0  0  0  0  0  0  0  0  0  0
    3.3037   -4.2221    0.0000 O   0  0  0  0  0  0  0  0  0  0  0  0
    0.7500   -1.2990    0.0000 C   0  0  0  0  0  0  0  0  0  0  0  0
    1.5000    0.0000    0.0000 C   0  0  0  0  0  0  0  0  0  0  0  0
    0.7500    1.2990    0.0000 C   0  0  0  0  0  0  0  0  0  0  0  0
   -0.7500    1.2990    0.0000 C   0  0  0  0  0  0  0  0  0  0  0  0
   -1.5000    0.0000    0.0000 C   0  0  0  0  0  0  0  0  0  0  0  0
   -0.7500   -1.2990    0.0000 C   0  0  0  0  0  0  0  0  0  0  0  0
   -1.5000    2.5981    0.0000 N   0  0  0  0  0  0  0  0  0  0  0  0
   -0.7500    3.8971    0.0000 C   0  0  0  0  0  0  0  0  0  0  0  0
   -1.5000    5.1962    0.0000 C   0  0  0  0  0  0  0  0  0  0  0  0
   -3.0000    5.1962    0.0000 O   0  0  0  0  0  0  0  0  0  0  0  0
   -3.7500    3.8971    0.0000 C   0  0  0  0  0  0  0  0  0  0  0  0
   -3.0000    2.5981    0.0000 C   0  0  0  0  0  0  0  0  0  0  0  0
   -3.7500    1.2990    0.0000 O   0  0  0  0  0  0  0  0  0  0  0  0
  1  2  1  0
  2  3  2  0
  3  4  1  0
  4  5  2  0
  5  6  1  0
  5  7  1  0
  7  8  2  0
  7  9  1  0
  9 10  1  0
 11 10  1  1
 11 12  1  0
 12 13  1  0
 13 14  1  0
 14 15  2  0
 14 16  1  0
 13 17  1  0
 17 18  2  0
 18 19  1  0
 19 20  2  0
 20 21  1  0
 21 22  2  0
 20 23  1  0
 23 24  1  0
 24 25  1  0
 25 26  1  0
 26 27  1  0
 27 28  1  0
 28 29  2  0
  6  2  1  0
 16 11  1  0
 22 17  1  0
 28 23  1  0
M  END
$$$$
191342
     RDKit          2D

 22 25  0  0  0  0  0  0  0  0999 V2000
    1.0152   -8.4216    0.0000 Cl  0  0  0  0  0  0  0  0  0  0  0  0
    1.1273   -6.9258    0.0000 C   0  0  0  0  0  0  0  0  0  0  0  0
    2.4787   -6.2750    0.0000 C   0  0  0  0  0  0  0  0  0  0  0  0
    2.5908   -4.7792    0.0000 C   0  0  0  0  0  0  0  0  0  0  0  0
    1.3515   -3.9342    0.0000 C   0  0  0  0  0  0  0  0  0  0  0  0
    1.6852   -2.4718    0.0000 C   0  0  0  0  0  0  0  0  0  0  0  0
    3.1476   -2.1380    0.0000 C   0  0  0  0  0  0  0  0  0  0  0  0
    4.1679   -3.2376    0.0000 C   0  0  0  0  0  0  0  0  0  0  0  0
    5.6303   -2.9038    0.0000 C   0  0  0  0  0  0  0  0  0  0  0  0
    6.0724   -1.4704    0.0000 N   0  0  0  0  0  0  0  0  0  0  0  0
    5.0522   -0.3709    0.0000 C   0  0  0  0  0  0  0  0  0  0  0  0
    3.5898   -0.7046    0.0000 C   0  0  0  0  0  0  0  0  0  0  0  0
    0.7500   -1.2990    0.0000 C   0  0  0  0  0  0  0  0  0  0  0  0
    1.5000    0.0000    0.0000 N   0  0  0  0  0  0  0  0  0  0  0  0
    0.7500    1.2990    0.0000 C   0  0  0  0  0  0  0  0  0  0  0  0
   -0.7500    1.2990    0.0000 C   0  0  0  0  0  0  0  0  0  0  0  0
   -1.5000    0.0000    0.0000 C   0  0  0  0  0  0  0  0  0  0  0  0
   -0.7500   -1.2990    0.0000 C   0  0  0  0  0  0  0  0  0  0  0  0
   -1.6852   -2.4718    0.0000 C   0  0  0  0  0  0  0  0  0  0  0  0
   -1.3515   -3.9342    0.0000 C   0  0  0  0  0  0  0  0  0  0  0  0
    0.0000   -4.5850    0.0000 C   0  0  0  0  0  0  0  0  0  0  0  0
   -0.1121   -6.0808    0.0000 C   0  0  0  0  0  0  0  0  0  0  0  0
  1  2  1  0
  2  3  2  0
  3  4  1  0
  4  5  2  0
  5  6  1  0
  6  7  2  0
  7  8  1  0
  8  9  1  0
  9 10  1  0
 10 11  1  0
 11 12  1  0
  6 13  1  0
 13 14  2  0
 14 15  1  0
 15 16  2  0
 16 17  1  0
 17 18  2  0
 18 19  1  0
 19 20  1  0
 20 21  1  0
 21 22  2  0
 22  2  1  0
 21  5  1  0
 12  7  1  0
 18 13  1  0
M  END
$$$$
49847
     RDKit          2D

 21 24  0  0  0  0  0  0  0  0999 V2000
   -6.3673    3.4680    0.0000 Cl  0  0  0  0  0  0  0  0  0  0  0  0
   -5.0062    2.8374    0.0000 C   0  0  0  0  0  0  0  0  0  0  0  0
   -4.8718    1.3435    0.0000 C   0  0  0  0  0  0  0  0  0  0  0  0
   -3.5107    0.7129    0.0000 C   0  0  0  0  0  0  0  0  0  0  0  0
   -2.2841    1.5763    0.0000 C   0  0  0  0  0  0  0  0  0  0  0  0
   -2.4186    3.0703    0.0000 C   0  0  0  0  0  0  0  0  0  0  0  0
   -3.7796    3.7008    0.0000 C   0  0  0  0  0  0  0  0  0  0  0  0
   -1.3344    4.1069    0.0000 C   0  0  0  0  0  0  0  0  0  0  0  0
    0.1520    3.9056    0.0000 N   0  0  0  0  0  0  0  0  0  0  0  0
    0.9214    2.6179    0.0000 C   0  0  0  0  0  0  0  0  0  0  0  0
    0.3943    1.2135    0.0000 C   0  0  0  0  0  0  0  0  0  0  0  0
    1.2760    0.0000    0.0000 N   0  0  0  0  0  0  0  0  0  0  0  0
    0.3943   -1.2135    0.0000 N   0  0  0  0  0  0  0  0  0  0  0  0
   -1.0323   -0.7500    0.0000 C   0  0  0  0  0  0  0  0  0  0  0  0
   -1.0323    0.7500    0.0000 N   0  0  0  0  0  0  0  0  0  0  0  0
   -1.7979    5.5335    0.0000 C   0  0  0  0  0  0  0  0  0  0  0  0
   -0.7942    6.6482    0.0000 C   0  0  0  0  0  0  0  0  0  0  0  0
   -1.2578    8.0748    0.0000 C   0  0  0  0  0  0  0  0  0  0  0  0
   -2.7250    8.3867    0.0000 C   0  0  0  0  0  0  0  0  0  0  0  0
   -3.7287    7.2719    0.0000 C   0  0  0  0  0  0  0  0  0  0  0  0
   -3.2652    5.8454    0.0000 C   0  0  0  0  0  0  0  0  0  0  0  0
  1  2  1  0
  2  3  2  0
  3  4  1  0
  4  5  2  0
  5  6  1  0
  6  7  2  0
  6  8  1  0
  8  9  2  0
  9 10  1  0
 10 11  1  0
 11 12  2  0
 12 13  1  0
 13 14  2  0
 14 15  1  0
  8 16  1  0
 16 17  2  0
 17 18  1  0
 18 19  2  0
 19 20  1  0
 20 21  2  0
  7  2  1  0
 15  5  1  0
 15 11  1  0
 21 16  1  0
M  END
$$$$
95969
     RDKit          2D

 23 26  0  0  0  0  0  0  0  0999 V2000
    3.0000    0.0000    0.0000 Cl  0  0  0  0  0  0  0  0  0  0  0  0
    1.5000    0.0000    0.0000 C   0  0  0  0  0  0  0  0  0  0  0  0
    0.7500   -1.2990    0.0000 C   0  0  0  0  0  0  0  0  0  0  0  0
   -0.7500   -1.2990    0.0000 C   0  0  0  0  0  0  0  0  0  0  0  0
   -1.5000    0.0000    0.0000 C   0  0  0  0  0  0  0  0  0  0  0  0
   -2.9832   -0.2236    0.0000 N   0  0  0  0  0  0  0  0  0  0  0  0
   -3.4254   -1.6569    0.0000 C   0  0  0  0  0  0  0  0  0  0  0  0
   -4.8878   -1.9907    0.0000 C   0  0  0  0  0  0  0  0  0  0  0  0
   -5.9873   -3.0110    0.0000 C   0  0  0  0  0  0  0  0  0  0  0  0
   -6.3211   -1.5486    0.0000 C   0  0  0  0  0  0  0  0  0  0  0  0
   -4.0828    0.7967    0.0000 C   0  0  0  0  0  0  0  0  0  0  0  0
   -5.4791    0.2487    0.0000 O   0  0  0  0  0  0  0  0  0  0  0  0
   -3.9707    2.2925    0.0000 C   0  0  0  0  0  0  0  0  0  0  0  0
   -2.7314    3.1375    0.0000 N   0  0  0  0  0  0  0  0  0  0  0  0
   -1.2980    2.6953    0.0000 C   0  0  0  0  0  0  0  0  0  0  0  0
   -0.2778    3.7949    0.0000 C   0  0  0  0  0  0  0  0  0  0  0  0
    1.1846    3.4611    0.0000 C   0  0  0  0  0  0  0  0  0  0  0  0
    2.2049    4.5607    0.0000 C   0  0  0  0  0  0  0  0  0  0  0  0
    1.7628    5.9941    0.0000 C   0  0  0  0  0  0  0  0  0  0  0  0
    0.3004    6.3279    0.0000 C   0  0  0  0  0  0  0  0  0  0  0  0
   -0.7199    5.2283    0.0000 C   0  0  0  0  0  0  0  0  0  0  0  0
   -0.7500    1.2990    0.0000 C   0  0  0  0  0  0  0  0  0  0  0  0
    0.7500    1.2990    0.0000 C   0  0  0  0  0  0  0  0  0  0  0  0
  1  2  1  0
  2  3  2  0
  3  4  1  0
  4  5  2  0
  5  6  1  0
  6  7  1  0
  7  8  1  0
  8  9  1  0
  9 10  1  0
  6 11  1  0
 11 12  2  0
 11 13  1  0
 13 14  1  0
 14 15  2  0
 15 16  1  0
 16 17  2  0
 17 18  1  0
 18 19  2  0
 19 20  1  0
 20 21  2  0
 15 22  1  0
 22 23  2  0
 23  2  1  0
 22  5  1  0
 10  8  1  0
 21 16  1  0
M  END
$$$$
42290
     RDKit          2D

 16 18  0  0  0  0  0  0  0  0999 V2000
   -3.7527    6.6955    0.0000 Cl  0  0  0  0  0  0  0  0  0  0  0  0
   -2.6380    5.6918    0.0000 C   0  0  0  0  0  0  0  0  0  0  0  0
   -1.2114    6.1554    0.0000 C   0  0  0  0  0  0  0  0  0  0  0  0
   -0.0967    5.1517    0.0000 C   0  0  0  0  0  0  0  0  0  0  0  0
   -0.4086    3.6844    0.0000 C   0  0  0  0  0  0  0  0  0  0  0  0
    0.7062    2.6807    0.0000 N   0  0  0  0  0  0  0  0  0  0  0  0
    0.3943    1.2135    0.0000 C   0  0  0  0  0  0  0  0  0  0  0  0
    1.2760    0.0000    0.0000 N   0  0  0  0  0  0  0  0  0  0  0  0
    0.3943   -1.2135    0.0000 C   0  0  0  0  0  0  0  0  0  0  0  0
    0.8578   -2.6401    0.0000 O   0  0  0  0  0  0  0  0  0  0  0  0
   -1.0323   -0.7500    0.0000 C   0  0  0  0  0  0  0  0  0  0  0  0
   -1.0323    0.7500    0.0000 N   0  0  0  0  0  0  0  0  0  0  0  0
   -2.1470    1.7537    0.0000 C   0  0  0  0  0  0  0  0  0  0  0  0
   -1.8351    3.2209    0.0000 C   0  0  0  0  0  0  0  0  0  0  0  0
   -2.9499    4.2246    0.0000 C   0  0  0  0  0  0  0  0  0  0  0  0
   -4.3764    3.7611    0.0000 Cl  0  0  0  0  0  0  0  0  0  0  0  0
  1  2  1  0
  2  3  2  0
  3  4  1  0
  4  5  2  0
  5  6  1  0
  6  7  2  0
  7  8  1  0
  8  9  1  0
  9 10  2  0
  9 11  1  0
 11 12  1  0
 12 13  1  0
 13 14  1  0
 14 15  2  0
 15 16  1  0
 15  2  1  0
 14  5  1  0
 12  7  1  0
M  END
$$$$
140117
     RDKit          2D

 16 18  0  0  0  0  0  0  0  0999 V2000
   -2.9499    4.2246    0.0000 Cl  0  0  0  0  0  0  0  0  0  0  0  0
   -1.8351    3.2209    0.0000 C   0  0  0  0  0  0  0  0  0  0  0  0
   -0.4086    3.6844    0.0000 C   0  0  0  0  0  0  0  0  0  0  0  0
    0.7062    2.6807    0.0000 C   0  0  0  0  0  0  0  0  0  0  0  0
    0.3943    1.2135    0.0000 C   0  0  0  0  0  0  0  0  0  0  0  0
    1.2760    0.0000    0.0000 N   0  0  0  0  0  0  0  0  0  0  0  0
    0.3943   -1.2135    0.0000 S   0  0  0  0  0  0  0  0  0  0  0  0
   -1.0323   -0.7500    0.0000 N   0  0  0  0  0  0  0  0  0  0  0  0
   -1.0323    0.7500    0.0000 C   0  0  0  0  0  0  0  0  0  0  0  0
   -2.1470    1.7537    0.0000 C   0  0  0  0  0  0  0  0  0  0  0  0
   -3.5736    1.2902    0.0000 N   0  0  0  0  0  0  0  0  0  0  0  0
   -4.6883    2.2939    0.0000 C   0  0  0  0  0  0  0  0  0  0  0  0
   -6.1555    1.9820    0.0000 N   0  0  0  0  0  0  0  0  0  0  0  0
   -6.9055    3.2810    0.0000 C   0  0  0  0  0  0  0  0  0  0  0  0
   -5.9018    4.3958    0.0000 C   0  0  0  0  0  0  0  0  0  0  0  0
   -4.5315    3.7856    0.0000 N   0  0  0  0  0  0  0  0  0  0  0  0
  1  2  1  0
  2  3  1  0
  3  4  2  0
  4  5  1  0
  5  6  2  0
  6  7  1  0
  7  8  1  0
  8  9  2  0
  9 10  1  0
 10 11  1  0
 11 12  1  0
 12 13  2  0
 13 14  1  0
 14 15  1  0
 15 16  1  0
 10  2  2  0
  9  5  1  0
 16 12  1  0
M  END
$$$$
315123
     RDKit          2D

 11 12  0  0  0  0  0  0  0  0999 V2000
    3.0000    0.0000    0.0000 Cl  0  0  0  0  0  0  0  0  0  0  0  0
    1.5000    0.0000    0.0000 C   0  0  0  0  0  0  0  0  0  0  0  0
    0.7500   -1.2990    0.0000 C   0  0  0  0  0  0  0  0  0  0  0  0
   -0.7500   -1.2990    0.0000 C   0  0  0  0  0  0  0  0  0  0  0  0
   -1.5000    0.0000    0.0000 C   0  0  0  0  0  0  0  0  0  0  0  0
   -2.9672    0.3119    0.0000 O   0  0  0  0  0  0  0  0  0  0  0  0
   -3.1240    1.8037    0.0000 C   0  0  0  0  0  0  0  0  0  0  0  0
   -4.4231    2.5537    0.0000 O   0  0  0  0  0  0  0  0  0  0  0  0
   -1.7537    2.4138    0.0000 N   0  0  0  0  0  0  0  0  0  0  0  0
   -0.7500    1.2990    0.0000 C   0  0  0  0  0  0  0  0  0  0  0  0
    0.7500    1.2990    0.0000 C   0  0  0  0  0  0  0  0  0  0  0  0
  1  2  1  0
  2  3  2  0
  3  4  1  0
  4  5  2  0
  5  6  1  0
  6  7  1  0
  7  8  2  0
  7  9  1  0
  9 10  1  0
 10 11  2  0
 11  2  1  0
 10  5  1  0
M  END
$$$$
155045
     RDKit          2D

 22 25  0  0  0  0  0  0  0  0999 V2000
    1.0152   -8.4216    0.0000 Cl  0  0  0  0  0  0  0  0  0  0  0  0
    1.1273   -6.9258    0.0000 C   0  0  0  0  0  0  0  0  0  0  0  0
    2.4787   -6.2750    0.0000 C   0  0  0  0  0  0  0  0  0  0  0  0
    2.5908   -4.7792    0.0000 C   0  0  0  0  0  0  0  0  0  0  0  0
    1.3515   -3.9342    0.0000 C   0  0  0  0  0  0  0  0  0  0  0  0
    1.6852   -2.4718    0.0000 O   0  0  0  0  0  0  0  0  0  0  0  0
    0.7500   -1.2990    0.0000 C   0  0  0  0  0  0  0  0  0  0  0  0
    1.5000    0.0000    0.0000 C   0  0  0  0  0  0  0  0  0  0  0  0
    0.7500    1.2990    0.0000 C   0  0  0  0  0  0  0  0  0  0  0  0
   -0.7500    1.2990    0.0000 C   0  0  0  0  0  0  0  0  0  0  0  0
   -1.5000    0.0000    0.0000 C   0  0  0  0  0  0  0  0  0  0  0  0
   -0.7500   -1.2990    0.0000 C   0  0  0  0  0  0  0  0  0  0  0  0
   -1.6852   -2.4718    0.0000 N   0  0  0  0  0  0  0  0  0  0  0  0
   -1.3515   -3.9342    0.0000 C   0  0  0  0  0  0  0  0  0  0  0  0
   -2.5242   -4.8694    0.0000 N   0  0  0  0  0  0  0  0  0  0  0  0
   -3.9205   -4.3214    0.0000 C   0  0  0  0  0  0  0  0  0  0  0  0
   -5.0933   -5.2566    0.0000 C   0  0  0  0  0  0  0  0  0  0  0  0
   -4.8697   -6.7399    0.0000 N   0  0  0  0  0  0  0  0  0  0  0  0
   -3.4734   -7.2879    0.0000 C   0  0  0  0  0  0  0  0  0  0  0  0
   -2.3006   -6.3527    0.0000 C   0  0  0  0  0  0  0  0  0  0  0  0
    0.0000   -4.5850    0.0000 C   0  0  0  0  0  0  0  0  0  0  0  0
   -0.1121   -6.0808    0.0000 C   0  0  0  0  0  0  0  0  0  0  0  0
  1  2  1  0
  2  3  2  0
  3  4  1  0
  4  5  2  0
  5  6  1  0
  6  7  1  0
  7  8  2  0
  8  9  1  0
  9 10  2  0
 10 11  1  0
 11 12  2  0
 12 13  1  0
 13 14  2  0
 14 15  1  0
 15 16  1  0
 16 17  1  0
 17 18  1  0
 18 19  1  0
 19 20  1  0
 14 21  1  0
 21 22  2  0
 22  2  1  0
 21  5  1  0
 12  7  1  0
 20 15  1  0
M  END
$$$$
26401
     RDKit          2D

 26 29  0  0  0  0  0  0  0  0999 V2000
   10.3923   -9.6073    0.0000 Cl  0  0  0  0  0  0  0  0  0  0  0  0
    9.0933  -10.3573    0.0000 C   0  0  0  0  0  0  0  0  0  0  0  0
    9.0933  -11.8573    0.0000 C   0  0  0  0  0  0  0  0  0  0  0  0
    7.7942  -12.6073    0.0000 C   0  0  0  0  0  0  0  0  0  0  0  0
    6.4952  -11.8573    0.0000 C   0  0  0  0  0  0  0  0  0  0  0  0
    6.4952  -10.3573    0.0000 C   0  0  0  0  0  0  0  0  0  0  0  0
    7.7942   -9.6073    0.0000 C   0  0  0  0  0  0  0  0  0  0  0  0
    5.1962   -9.6073    0.0000 N   0  0  0  0  0  0  0  0  0  0  0  0
    5.1962   -8.1073    0.0000 C   0  0  0  0  0  0  0  0  0  0  0  0
    3.8971   -7.3573    0.0000 C   0  0  0  0  0  0  0  0  0  0  0  0
    2.5981   -8.1073    0.0000 N   0  0  0  0  0  0  0  0  0  0  0  0
    1.2990   -7.3573    0.0000 C   0  0  0  0  0  0  0  0  0  0  0  0
    1.2990   -5.8573    0.0000 C   0  0  0  0  0  0  0  0  0  0  0  0
   -0.0000   -5.1073    0.0000 C   0  0  0  0  0  0  0  0  0  0  0  0
   -0.0000   -3.6073    0.0000 N   0  0  0  0  0  0  0  0  0  0  0  0
    1.2135   -2.7256    0.0000 N   0  0  0  0  0  0  0  0  0  0  0  0
    0.7500   -1.2990    0.0000 C   0  0  0  0  0  0  0  0  0  0  0  0
    1.5000    0.0000    0.0000 C   0  0  0  0  0  0  0  0  0  0  0  0
    0.7500    1.2990    0.0000 C   0  0  0  0  0  0  0  0  0  0  0  0
   -0.7500    1.2990    0.0000 C   0  0  0  0  0  0  0  0  0  0  0  0
   -1.5000    0.0000    0.0000 C   0  0  0  0  0  0  0  0  0  0  0  0
   -0.7500   -1.2990    0.0000 N   0  0  0  0  0  0  0  0  0  0  0  0
   -1.2135   -2.7256    0.0000 C   0  0  0  0  0  0  0  0  0  0  0  0
   -2.6401   -3.1891    0.0000 O   0  0  0  0  0  0  0  0  0  0  0  0
    2.5981   -9.6073    0.0000 C   0  0  0  0  0  0  0  0  0  0  0  0
    3.8971  -10.3573    0.0000 C   0  0  0  0  0  0  0  0  0  0  0  0
  1  2  1  0
  2  3  2  0
  3  4  1  0
  4  5  2  0
  5  6  1  0
  6  7  2  0
  6  8  1  0
  8  9  1  0
  9 10  1  0
 10 11  1  0
 11 12  1  0
 12 13  1  0
 13 14  1  0
 14 15  1  0
 15 16  1  0
 16 17  2  0
 17 18  1  0
 18 19  2  0
 19 20  1  0
 20 21  2  0
 21 22  1  0
 22 23  1  0
 23 24  2  0
 11 25  1  0
 25 26  1  0
  7  2  1  0
 26  8  1  0
 23 15  1  0
 22 17  1  0
M  END
$$$$
27609
     RDKit          2D

 14 15  0  0  0  0  0  0  0  0999 V2000
    3.0000    0.0000    0.0000 Cl  0  0  0  0  0  0  0  0  0  0  0  0
    1.5000    0.0000    0.0000 C   0  0  0  0  0  0  0  0  0  0  0  0
    0.7500   -1.2990    0.0000 C   0  0  0  0  0  0  0  0  0  0  0  0
   -0.7500   -1.2990    0.0000 C   0  0  0  0  0  0  0  0  0  0  0  0
   -1.5000    0.0000    0.0000 C   0  0  0  0  0  0  0  0  0  0  0  0
   -0.7500    1.2990    0.0000 C   0  0  0  0  0  0  0  0  0  0  0  0
   -1.5000    2.5981    0.0000 Cl  0  0  0  0  0  0  0  0  0  0  0  0
    0.7500    1.2990    0.0000 C   0  0  0  0  0  0  0  0  0  0  0  0
    1.5000    2.5981    0.0000 N   0  0  0  0  0  0  0  0  0  0  0  0
    3.0000    2.5981    0.0000 C   0  0  0  0  0  0  0  0  0  0  0  0
    3.8817    3.8116    0.0000 N   0  0  0  0  0  0  0  0  0  0  0  0
    5.3083    3.3481    0.0000 C   0  0  0  0  0  0  0  0  0  0  0  0
    5.3083    1.8481    0.0000 C   0  0  0  0  0  0  0  0  0  0  0  0
    3.8817    1.3846    0.0000 N   0  0  0  0  0  0  0  0  0  0  0  0
  1  2  1  0
  2  3  2  0
  3  4  1  0
  4  5  2  0
  5  6  1  0
  6  7  1  0
  6  8  2  0
  8  9  1  0
  9 10  1  0
 10 11  2  0
 11 12  1  0
 12 13  1  0
 13 14  1  0
  8  2  1  0
 14 10  1  0
M  END
$$$$
155006
     RDKit          2D

 30 33  0  0  0  0  0  0  0  0999 V2000
   -0.7500  -16.8875    0.0000 Cl  0  0  0  0  0  0  0  0  0  0  0  0
   -1.5000  -15.5885    0.0000 C   0  0  0  0  0  0  0  0  0  0  0  0
   -3.0000  -15.5885    0.0000 C   0  0  0  0  0  0  0  0  0  0  0  0
   -3.7500  -14.2894    0.0000 C   0  0  0  0  0  0  0  0  0  0  0  0
   -3.0000  -12.9904    0.0000 C   0  0  0  0  0  0  0  0  0  0  0  0
   -1.5000  -12.9904    0.0000 C   0  0  0  0  0  0  0  0  0  0  0  0
   -0.7500  -11.6913    0.0000 N   0  0  0  0  0  0  0  0  0  0  0  0
    0.7500  -11.6913    0.0000 C   0  0  0  0  0  0  0  0  0  0  0  0
    1.5000  -10.3923    0.0000 C   0  0  0  0  0  0  0  0  0  0  0  0
    0.7500   -9.0933    0.0000 N   0  0  0  0  0  0  0  0  0  0  0  0
    1.5000   -7.7942    0.0000 C   0  0  0  0  0  0  0  0  0  0  0  0
    0.7500   -6.4952    0.0000 C   0  0  0  0  0  0  0  0  0  0  0  0
    1.5000   -5.1962    0.0000 C   0  0  0  0  0  0  0  0  0  0  0  0
    0.7500   -3.8971    0.0000 C   0  0  0  0  0  0  0  0  0  0  0  0
    1.5000   -2.5981    0.0000 O   0  0  0  0  0  0  0  0  0  0  0  0
    0.7500   -1.2990    0.0000 C   0  0  0  0  0  0  0  0  0  0  0  0
    1.5000    0.0000    0.0000 C   0  0  0  0  0  0  0  0  0  0  0  0
    0.7500    1.2990    0.0000 C   0  0  0  0  0  0  0  0  0  0  0  0
   -0.7500    1.2990    0.0000 C   0  0  0  0  0  0  0  0  0  0  0  0
   -1.5000    2.5981    0.0000 C   0  0  0  0  0  0  0  0  0  0  0  0
   -3.0000    2.5981    0.0000 C   0  0  0  0  0  0  0  0  0  0  0  0
   -3.7500    1.2990    0.0000 C   0  0  0  0  0  0  0  0  0  0  0  0
   -5.2500    1.2990    0.0000 O   0  0  0  0  0  0  0  0  0  0  0  0
   -3.0000    0.0000    0.0000 N   0  0  0  0  0  0  0  0  0  0  0  0
   -1.5000    0.0000    0.0000 C   0  0  0  0  0  0  0  0  0  0  0  0
   -0.7500   -1.2990    0.0000 C   0  0  0  0  0  0  0  0  0  0  0  0
   -0.7500   -9.0933    0.0000 C   0  0  0  0  0  0  0  0  0  0  0  0
   -1.5000  -10.3923    0.0000 C   0  0  0  0  0  0  0  0  0  0  0  0
   -0.7500  -14.2894    0.0000 C   0  0  0  0  0  0  0  0  0  0  0  0
    0.7500  -14.2894    0.0000 Cl  0  0  0  0  0  0  0  0  0  0  0  0
  1  2  1  0
  2  3  2  0
  3  4  1  0
  4  5  2  0
  5  6  1  0
  6  7  1  0
  7  8  1  0
  8  9  1  0
  9 10  1  0
 10 11  1  0
 11 12  1  0
 12 13  1  0
 13 14  1  0
 14 15  1  0
 15 16  1  0
 16 17  2  0
 17 18  1  0
 18 19  2  0
 19 20  1  0
 20 21  1  0
 21 22  1  0
 22 23  2  0
 22 24  1  0
 24 25  1  0
 25 26  2  0
 10 27  1  0
 27 28  1  0
  6 29  2  0
 29 30  1  0
 29  2  1  0
 28  7  1  0
 26 16  1  0
 25 19  1  0
M  END
$$$$
13494
     RDKit          2D

 25 28  0  0  0  0  0  0  0  0999 V2000
   -1.3038    1.8724    0.0000 Cl  0  0  0  0  0  0  0  0  0  0  0  0
   -0.7500    1.2990    0.0000 C   0  0  0  0  0  0  0  0  0  0  0  0
   -1.5000    0.0000    0.0000 C   0  0  0  0  0  0  0  0  0  0  0  0
   -0.7500   -1.2990    0.0000 C   0  0  0  0  0  0  0  0  0  0  0  0
    0.7500   -1.2990    0.0000 C   0  0  0  0  0  0  0  0  0  0  0  0
    1.5000   -0.0000    0.0000 C   0  0  0  0  0  0  0  0  0  0  0  0
    0.7500    1.2990    0.0000 C   0  0  0  0  0  0  0  0  0  0  0  0
    1.5000    2.5981    0.0000 C   0  0  0  0  0  0  0  0  0  0  0  0
    0.2010    3.3481    0.0000 C   0  0  0  0  0  0  0  0  0  0  0  0
    0.2010    4.8481    0.0000 C   0  0  0  0  0  0  0  0  0  0  0  0
   -1.0981    5.5981    0.0000 C   0  0  0  0  0  0  0  0  0  0  0  0
   -2.3971    4.8481    0.0000 C   0  0  0  0  0  0  0  0  0  0  0  0
   -2.3971    3.3481    0.0000 C   0  0  0  0  0  0  0  0  0  0  0  0
   -1.0981    2.5981    0.0000 C   0  0  0  0  0  0  0  0  0  0  0  0
    2.7990    1.8481    0.0000 C   0  0  0  0  0  0  0  0  0  0  0  0
    2.7990    0.3481    0.0000 C   0  0  0  0  0  0  0  0  0  0  0  0
    4.0981   -0.4019    0.0000 C   0  0  0  0  0  0  0  0  0  0  0  0
    5.3971    0.3481    0.0000 C   0  0  0  0  0  0  0  0  0  0  0  0
    5.3971    1.8481    0.0000 C   0  0  0  0  0  0  0  0  0  0  0  0
    4.0981    2.5981    0.0000 C   0  0  0  0  0  0  0  0  0  0  0  0
    2.2500    3.8971    0.0000 N   0  0  0  0  0  0  0  0  0  0  0  0
    1.6399    5.2674    0.0000 C   0  0  0  0  0  0  0  0  0  0  0  0
    2.7546    6.2711    0.0000 C   0  0  0  0  0  0  0  0  0  0  0  0
    4.0537    5.5211    0.0000 N   0  0  0  0  0  0  0  0  0  0  0  0
    3.7418    4.0539    0.0000 C   0  0  0  0  0  0  0  0  0  0  0  0
  1  2  1  0
  2  3  2  0
  3  4  1  0
  4  5  2  0
  5  6  1  0
  6  7  2  0
  7  8  1  0
  8  9  1  0
  9 10  2  0
 10 11  1  0
 11 12  2  0
 12 13  1  0
 13 14  2  0
  8 15  1  0
 15 16  2  0
 16 17  1  0
 17 18  2  0
 18 19  1  0
 19 20  2  0
  8 21  1  0
 21 22  1  0
 22 23  2  0
 23 24  1  0
 24 25  2  0
  7  2  1  0
 14  9  1  0
 20 15  1  0
 25 21  1  0
M  END
$$$$
60319
     RDKit          2D

 17 19  0  0  0  0  0  0  0  0999 V2000
   -5.1793    6.2320    0.0000 Cl  0  0  0  0  0  0  0  0  0  0  0  0
   -3.7527    6.6955    0.0000 C   0  0  0  0  0  0  0  0  0  0  0  0
   -3.4408    8.1628    0.0000 C   0  0  0  0  0  0  0  0  0  0  0  0
   -2.0143    8.6263    0.0000 C   0  0  0  0  0  0  0  0  0  0  0  0
   -0.8995    7.6226    0.0000 C   0  0  0  0  0  0  0  0  0  0  0  0
   -1.2114    6.1554    0.0000 C   0  0  0  0  0  0  0  0  0  0  0  0
   -2.6380    5.6918    0.0000 C   0  0  0  0  0  0  0  0  0  0  0  0
   -2.9499    4.2246    0.0000 C   0  0  0  0  0  0  0  0  0  0  0  0
   -1.8351    3.2209    0.0000 N   0  0  0  0  0  0  0  0  0  0  0  0
   -0.4086    3.6844    0.0000 C   0  0  0  0  0  0  0  0  0  0  0  0
    0.7062    2.6807    0.0000 C   0  0  0  0  0  0  0  0  0  0  0  0
    0.3943    1.2135    0.0000 C   0  0  0  0  0  0  0  0  0  0  0  0
    1.2760    0.0000    0.0000 S   0  0  0  0  0  0  0  0  0  0  0  0
    0.3943   -1.2135    0.0000 C   0  0  0  0  0  0  0  0  0  0  0  0
   -1.0323   -0.7500    0.0000 C   0  0  0  0  0  0  0  0  0  0  0  0
   -1.0323    0.7500    0.0000 C   0  0  0  0  0  0  0  0  0  0  0  0
   -2.1470    1.7537    0.0000 C   0  0  0  0  0  0  0  0  0  0  0  0
  1  2  1  0
  2  3  2  0
  3  4  1  0
  4  5  2  0
  5  6  1  0
  6  7  2  0
  7  8  1  0
  8  9  1  0
  9 10  1  0
 10 11  1  0
 11 12  1  0
 12 13  1  0
 13 14  1  0
 14 15  2  0
 15 16  1  0
 16 17  1  0
  7  2  1  0
 17  9  1  0
 16 12  2  0
M  END
$$$$
418344
     RDKit          2D

 15 15  0  0  0  0  0  0  0  0999 V2000
    6.0000   -2.5981    0.0000 Cl  0  0  0  0  0  0  0  0  0  0  0  0
    5.2500   -1.2990    0.0000 C   0  0  0  0  0  0  0  0  0  0  0  0
    3.7500   -1.2990    0.0000 C   0  0  0  0  0  0  0  0  0  0  0  0
    3.0000    0.0000    0.0000 N   0  0  0  0  0  0  0  0  0  0  0  0
    3.7500    1.2990    0.0000 C   0  0  0  0  0  0  0  0  0  0  0  0
    5.2500    1.2990    0.0000 C   0  0  0  0  0  0  0  0  0  0  0  0
    6.0000    2.5981    0.0000 Cl  0  0  0  0  0  0  0  0  0  0  0  0
    1.5000    0.0000    0.0000 C   0  0  0  0  0  0  0  0  0  0  0  0
    0.7500   -1.2990    0.0000 C   0  0  0  0  0  0  0  0  0  0  0  0
   -0.7500   -1.2990    0.0000 N   0  0  0  0  0  0  0  0  0  0  0  0
   -1.5000    0.0000    0.0000 C   0  0  0  0  0  0  0  0  0  0  0  0
   -3.0000    0.0000    0.0000 O   0  0  0  0  0  0  0  0  0  0  0  0
   -0.7500    1.2990    0.0000 N   0  0  0  0  0  0  0  0  0  0  0  0
    0.7500    1.2990    0.0000 C   0  0  0  0  0  0  0  0  0  0  0  0
    1.5000    2.5981    0.0000 O   0  0  0  0  0  0  0  0  0  0  0  0
  1  2  1  0
  2  3  1  0
  3  4  1  0
  4  5  1  0
  5  6  1  0
  6  7  1  0
  4  8  1  0
  8  9  2  0
  9 10  1  0
 10 11  1  0
 11 12  2  0
 11 13  1  0
 13 14  1  0
 14 15  2  0
 14  8  1  0
M  END
$$$$
8417
     RDKit          2D

 14 14  0  0  0  0  0  0  0  0999 V2000
    6.6172    0.9023    0.0000 Cl  0  0  0  0  0  0  0  0  0  0  0  0
    5.2077    1.4153    0.0000 C   0  0  0  0  0  0  0  0  0  0  0  0
    4.0586    0.4512    0.0000 C   0  0  0  0  0  0  0  0  0  0  0  0
    2.6491    0.9642    0.0000 N   0  0  0  0  0  0  0  0  0  0  0  0
    2.3886    2.4414    0.0000 C   0  0  0  0  0  0  0  0  0  0  0  0
    3.5377    3.4056    0.0000 C   0  0  0  0  0  0  0  0  0  0  0  0
    3.2772    4.8828    0.0000 Cl  0  0  0  0  0  0  0  0  0  0  0  0
    1.5000    0.0000    0.0000 P   0  0  0  0  0  0  0  0  0  0  0  0
    2.6491   -0.9642    0.0000 O   0  0  0  0  0  0  0  0  0  0  0  0
    0.7500   -1.2990    0.0000 N   0  0  0  0  0  0  0  0  0  0  0  0
   -0.7500   -1.2990    0.0000 C   0  0  0  0  0  0  0  0  0  0  0  0
   -1.5000    0.0000    0.0000 C   0  0  0  0  0  0  0  0  0  0  0  0
   -0.7500    1.2990    0.0000 C   0  0  0  0  0  0  0  0  0  0  0  0
    0.7500    1.2990    0.0000 O   0  0  0  0  0  0  0  0  0  0  0  0
  1  2  1  0
  2  3  1  0
  3  4  1  0
  4  5  1  0
  5  6  1  0
  6  7  1  0
  4  8  1  0
  8  9  2  0
  8 10  1  0
 10 11  1  0
 11 12  1  0
 12 13  1  0
 13 14  1  0
 14  8  1  0
M  END
$$$$
10898
     RDKit          2D

 15 15  0  0  0  0  0  0  0  0999 V2000
    8.2500   -3.8971    0.0000 Cl  0  0  0  0  0  0  0  0  0  0  0  0
    7.5000   -2.5981    0.0000 C   0  0  0  0  0  0  0  0  0  0  0  0
    6.0000   -2.5981    0.0000 C   0  0  0  0  0  0  0  0  0  0  0  0
    5.2500   -1.2990    0.0000 N   0  0  0  0  0  0  0  0  0  0  0  0
    6.0000    0.0000    0.0000 N   0  0  0  0  0  0  0  0  0  0  0  0
    7.5000   -0.0000    0.0000 O   0  0  0  0  0  0  0  0  0  0  0  0
    3.7500   -1.2990    0.0000 C   0  0  0  0  0  0  0  0  0  0  0  0
    3.0000   -2.5981    0.0000 O   0  0  0  0  0  0  0  0  0  0  0  0
    3.0000    0.0000    0.0000 N   0  0  0  0  0  0  0  0  0  0  0  0
    1.5000    0.0000    0.0000 C   0  0  0  0  0  0  0  0  0  0  0  0
    0.7500   -1.2990    0.0000 C   0  0  0  0  0  0  0  0  0  0  0  0
   -0.7500   -1.2990    0.0000 C   0  0  0  0  0  0  0  0  0  0  0  0
   -1.5000    0.0000    0.0000 C   0  0  0  0  0  0  0  0  0  0  0  0
   -0.7500    1.2990    0.0000 C   0  0  0  0  0  0  0  0  0  0  0  0
    0.7500    1.2990    0.0000 C   0  0  0  0  0  0  0  0  0  0  0  0
  1  2  1  0
  2  3  1  0
  3  4  1  0
  4  5  1  0
  5  6  2  0
  4  7  1  0
  7  8  2  0
  7  9  1  0
  9 10  1  0
 10 11  1  0
 11 12  1  0
 12 13  1  0
 13 14  1  0
 14 15  1  0
 15 10  1  0
M  END
$$$$
341603
     RDKit          2D

 41 44  0  0  0  0  0  0  0  0999 V2000
    4.5000   -5.1962    0.0000 C   0  0  0  0  0  0  0  0  0  0  0  0
    3.7500   -3.8971    0.0000 N   0  0  0  0  0  0  0  0  0  0  0  0
    2.2500   -3.8971    0.0000 C   0  0  0  0  0  0  0  0  0  0  0  0
    1.5000   -5.1962    0.0000 O   0  0  0  0  0  0  0  0  0  0  0  0
    1.5000   -2.5981    0.0000 C   0  0  0  0  0  0  0  0  0  0  0  0
    2.7990   -1.8481    0.0000 C   0  0  0  0  0  0  0  0  0  0  0  0
    0.2010   -3.3481    0.0000 C   0  0  0  0  0  0  0  0  0  0  0  0
    0.7500   -1.2990    0.0000 C   0  0  0  0  0  0  0  0  0  0  0  0
    1.5000    0.0000    0.0000 C   0  0  0  0  0  0  0  0  0  0  0  0
    0.7500    1.2990    0.0000 C   0  0  0  0  0  0  0  0  0  0  0  0
   -0.7500    1.2990    0.0000 C   0  0  0  0  0  0  0  0  0  0  0  0
   -1.5000    0.0000    0.0000 C   0  0  0  0  0  0  0  0  0  0  0  0
   -0.7500   -1.2990    0.0000 C   0  0  0  0  0  0  0  0  0  0  0  0
   -3.0000    0.0000    0.0000 C   0  0  0  0  0  0  0  0  0  0  0  0
   -4.5000    0.0000    0.0000 F   0  0  0  0  0  0  0  0  0  0  0  0
   -3.0000    1.5000    0.0000 F   0  0  0  0  0  0  0  0  0  0  0  0
   -3.0000   -1.5000    0.0000 F   0  0  0  0  0  0  0  0  0  0  0  0
    1.5000    2.5981    0.0000 C   0  0  0  0  0  0  0  0  0  0  0  0
    2.2500    3.8971    0.0000 F   0  0  0  0  0  0  0  0  0  0  0  0
    2.7990    1.8481    0.0000 F   0  0  0  0  0  0  0  0  0  0  0  0
    0.2010    3.3481    0.0000 F   0  0  0  0  0  0  0  0  0  0  0  0
    4.5000   -2.5981    0.0000 C   0  0  0  0  0  0  0  0  0  0  0  0
    3.7500   -1.2990    0.0000 C   0  0  0  0  0  0  0  0  0  0  0  0
    4.5000   -0.0000    0.0000 N   0  0  0  0  0  0  0  0  0  0  0  0
    6.0000   -0.0000    0.0000 C   0  0  0  0  0  0  0  0  0  0  0  0
    6.7500   -1.2990    0.0000 C   0  0  0  0  0  0  0  0  0  0  0  0
    6.0000   -2.5981    0.0000 C   0  0  0  0  0  0  0  0  0  0  0  0
    6.7500   -3.8971    0.0000 C   0  0  0  0  0  0  0  0  0  0  0  0
    6.0000   -5.1962    0.0000 C   0  0  0  0  0  0  0  0  0  0  0  0
    6.7500   -6.4952    0.0000 C   0  0  0  0  0  0  0  0  0  0  0  0
    8.2500   -6.4952    0.0000 C   0  0  0  0  0  0  0  0  0  0  0  0
    9.0000   -5.1962    0.0000 C   0  0  0  0  0  0  0  0  0  0  0  0
    8.2500   -3.8971    0.0000 C   0  0  0  0  0  0  0  0  0  0  0  0
    9.0000   -2.5981    0.0000 C   0  0  0  0  0  0  0  0  0  0  0  0
    6.7500    1.2990    0.0000 N   0  0  0  0  0  0  0  0  0  0  0  0
    6.0000    2.5981    0.0000 C   0  0  0  0  0  0  0  0  0  0  0  0
    6.7500    3.8971    0.0000 C   0  0  0  0  0  0  0  0  0  0  0  0
    8.2500    3.8971    0.0000 N   0  0  0  0  0  0  0  0  0  0  0  0
    9.0000    5.1962    0.0000 C   0  0  0  0  0  0  0  0  0  0  0  0
    9.0000    2.5981    0.0000 C   0  0  0  0  0  0  0  0  0  0  0  0
    8.2500    1.2990    0.0000 C   0  0  0  0  0  0  0  0  0  0  0  0
  1  2  1  0
  2  3  1  0
  3  4  2  0
  3  5  1  0
  5  6  1  0
  5  7  1  0
  5  8  1  0
  8  9  2  0
  9 10  1  0
 10 11  2  0
 11 12  1  0
 12 13  2  0
 12 14  1  0
 14 15  1  0
 14 16  1  0
 14 17  1  0
 10 18  1  0
 18 19  1  0
 18 20  1  0
 18 21  1  0
  2 22  1  0
 22 23  2  0
 23 24  1  0
 24 25  2  0
 25 26  1  0
 26 27  2  0
 27 28  1  0
 28 29  2  0
 29 30  1  0
 30 31  2  0
 31 32  1  0
 32 33  2  0
 33 34  1  0
 25 35  1  0
 35 36  1  0
 36 37  1  0
 37 38  1  0
 38 39  1  0
 38 40  1  0
 40 41  1  0
 13  8  1  0
 27 22  1  0
 33 28  1  0
 41 35  1  0
M  END
$$$$
369464
     RDKit          2D

  9  8  0  0  0  0  0  0  0  0999 V2000
    0.0000    0.0000    0.0000 C   0  0  0  0  0  0  0  0  0  0  0  0
    1.2990    0.7500    0.0000 N   0  0  0  0  0  0  0  0  0  0  0  0
    2.5981   -0.0000    0.0000 C   0  0  0  0  0  0  0  0  0  0  0  0
    1.2990    2.2500    0.0000 C   0  0  0  0  0  0  0  0  0  0  0  0
   -0.0000    3.0000    0.0000 N   0  0  0  0  0  0  0  0  0  0  0  0
    2.5981    3.0000    0.0000 N   0  0  0  0  0  0  0  0  0  0  0  0
    2.5981    4.5000    0.0000 C   0  0  0  0  0  0  0  0  0  0  0  0
    1.2990    5.2500    0.0000 N   0  0  0  0  0  0  0  0  0  0  0  0
    3.8971    5.2500    0.0000 N   0  0  0  0  0  0  0  0  0  0  0  0
  1  2  1  0
  2  3  1  0
  2  4  1  0
  4  5  2  0
  4  6  1  0
  6  7  1  0
  7  8  2  0
  7  9  1  0
M  END
$$$$
62259
     RDKit          2D

 34 37  0  0  0  0  0  0  0  0999 V2000
    5.3971   -4.4462    0.0000 C   0  0  0  0  0  0  0  0  0  0  0  0
    4.0981   -5.1962    0.0000 N   0  0  0  0  0  0  0  0  0  0  0  0
    4.4610   -6.6516    0.0000 C   0  0  0  0  0  0  0  0  0  0  0  0
    2.7990   -4.4462    0.0000 C   0  0  0  0  0  0  0  0  0  0  0  0
    2.7990   -2.9462    0.0000 O   0  0  0  0  0  0  0  0  0  0  0  0
    1.5000   -5.1962    0.0000 C   0  0  0  0  0  0  0  0  0  0  0  0
    0.7500   -3.8971    0.0000 C   0  0  0  0  0  0  0  0  0  0  0  0
    1.5000   -2.5981    0.0000 C   0  0  0  0  0  0  0  0  0  0  0  0
    0.7500   -1.2990    0.0000 N   0  0  0  0  0  0  0  0  0  0  0  0
    1.5000    0.0000    0.0000 C   0  0  0  0  0  0  0  0  0  0  0  0
    0.7500    1.2990    0.0000 C   0  0  0  0  0  0  0  0  0  0  0  0
   -0.7500    1.2990    0.0000 C   0  0  0  0  0  0  0  0  0  0  0  0
   -0.4895    2.7762    0.0000 O   0  0  0  0  0  0  0  0  0  0  0  0
   -1.5000    0.0000    0.0000 C   0  0  0  0  0  0  0  0  0  0  0  0
   -0.7500   -1.2990    0.0000 C   0  0  0  0  0  0  0  0  0  0  0  0
   -2.1595    1.8121    0.0000 C   0  0  0  0  0  0  0  0  0  0  0  0
   -2.4200    3.2893    0.0000 C   0  0  0  0  0  0  0  0  0  0  0  0
   -3.8296    3.8023    0.0000 C   0  0  0  0  0  0  0  0  0  0  0  0
   -4.9786    2.8381    0.0000 C   0  0  0  0  0  0  0  0  0  0  0  0
   -6.3882    3.3512    0.0000 Cl  0  0  0  0  0  0  0  0  0  0  0  0
   -4.7181    1.3609    0.0000 C   0  0  0  0  0  0  0  0  0  0  0  0
   -3.3086    0.8479    0.0000 C   0  0  0  0  0  0  0  0  0  0  0  0
    2.2500   -6.4952    0.0000 C   0  0  0  0  0  0  0  0  0  0  0  0
    1.5000   -7.7942    0.0000 C   0  0  0  0  0  0  0  0  0  0  0  0
    2.2500   -9.0933    0.0000 C   0  0  0  0  0  0  0  0  0  0  0  0
    3.7500   -9.0933    0.0000 C   0  0  0  0  0  0  0  0  0  0  0  0
    4.5000   -7.7942    0.0000 C   0  0  0  0  0  0  0  0  0  0  0  0
    3.7500   -6.4952    0.0000 C   0  0  0  0  0  0  0  0  0  0  0  0
    0.2010   -5.9462    0.0000 C   0  0  0  0  0  0  0  0  0  0  0  0
   -1.0981   -5.1962    0.0000 C   0  0  0  0  0  0  0  0  0  0  0  0
   -2.3971   -5.9462    0.0000 C   0  0  0  0  0  0  0  0  0  0  0  0
   -2.3971   -7.4462    0.0000 C   0  0  0  0  0  0  0  0  0  0  0  0
   -1.0981   -8.1962    0.0000 C   0  0  0  0  0  0  0  0  0  0  0  0
    0.2010   -7.4462    0.0000 C   0  0  0  0  0  0  0  0  0  0  0  0
  1  2  1  0
  2  3  1  0
  2  4  1  0
  4  5  2  0
  4  6  1  0
  6  7  1  0
  7  8  1  0
  8  9  1  0
  9 10  1  0
 10 11  1  0
 11 12  1  0
 12 13  1  0
 12 14  1  0
 14 15  1  0
 12 16  1  0
 16 17  2  0
 17 18  1  0
 18 19  2  0
 19 20  1  0
 19 21  1  0
 21 22  2  0
  6 23  1  0
 23 24  2  0
 24 25  1  0
 25 26  2  0
 26 27  1  0
 27 28  2  0
  6 29  1  0
 29 30  2  0
 30 31  1  0
 31 32  2  0
 32 33  1  0
 33 34  2  0
 15  9  1  0
 22 16  1  0
 28 23  1  0
 34 29  1  0
M  END
$$$$
80965
     RDKit          2D

 23 25  0  0  0  0  0  0  0  0999 V2000
   -6.2961   -1.6453    0.0000 C   0  0  0  0  0  0  0  0  0  0  0  0
   -5.1814   -2.6490    0.0000 N   0  0  0  0  0  0  0  0  0  0  0  0
   -5.4933   -4.1162    0.0000 C   0  0  0  0  0  0  0  0  0  0  0  0
   -3.7548   -2.1855    0.0000 C   0  0  0  0  0  0  0  0  0  0  0  0
   -3.4430   -0.7182    0.0000 O   0  0  0  0  0  0  0  0  0  0  0  0
   -2.6401   -3.1891    0.0000 C   0  0  0  0  0  0  0  0  0  0  0  0
   -1.2135   -2.7256    0.0000 C   0  0  0  0  0  0  0  0  0  0  0  0
   -0.0000   -3.6073    0.0000 C   0  0  0  0  0  0  0  0  0  0  0  0
    1.2135   -2.7256    0.0000 N   0  0  0  0  0  0  0  0  0  0  0  0
    0.7500   -1.2990    0.0000 C   0  0  0  0  0  0  0  0  0  0  0  0
    1.5000    0.0000    0.0000 C   0  0  0  0  0  0  0  0  0  0  0  0
    0.7500    1.2990    0.0000 C   0  0  0  0  0  0  0  0  0  0  0  0
   -0.7500    1.2990    0.0000 C   0  0  0  0  0  0  0  0  0  0  0  0
   -1.5000    2.5981    0.0000 C   0  0  0  0  0  0  0  0  0  0  0  0
   -1.5000    0.0000    0.0000 C   0  0  0  0  0  0  0  0  0  0  0  0
   -0.7500   -1.2990    0.0000 N   0  0  0  0  0  0  0  0  0  0  0  0
   -0.0000   -5.1073    0.0000 C   0  0  0  0  0  0  0  0  0  0  0  0
   -1.2990   -5.8573    0.0000 C   0  0  0  0  0  0  0  0  0  0  0  0
   -1.2990   -7.3573    0.0000 C   0  0  0  0  0  0  0  0  0  0  0  0
   -0.0000   -8.1073    0.0000 C   0  0  0  0  0  0  0  0  0  0  0  0
   -0.0000   -9.6073    0.0000 C   0  0  0  0  0  0  0  0  0  0  0  0
    1.2990   -7.3573    0.0000 C   0  0  0  0  0  0  0  0  0  0  0  0
    1.2990   -5.8573    0.0000 C   0  0  0  0  0  0  0  0  0  0  0  0
  1  2  1  0
  2  3  1  0
  2  4  1  0
  4  5  2  0
  4  6  1  0
  6  7  1  0
  7  8  2  0
  8  9  1  0
  9 10  2  0
 10 11  1  0
 11 12  2  0
 12 13  1  0
 13 14  1  0
 13 15  2  0
 15 16  1  0
  8 17  1  0
 17 18  2  0
 18 19  1  0
 19 20  2  0
 20 21  1  0
 20 22  1  0
 22 23  2  0
 16  7  1  0
 16 10  1  0
 23 17  1  0
M  END
$$$$
1104074
     RDKit          2D

 33 34  0  0  0  0  0  0  0  0999 V2000
   -6.2961   -1.6453    0.0000 C   0  0  0  0  0  0  0  0  0  0  0  0
   -5.1814   -2.6490    0.0000 N   0  0  0  0  0  0  0  0  0  0  0  0
   -5.4933   -4.1162    0.0000 C   0  0  0  0  0  0  0  0  0  0  0  0
   -3.7548   -2.1855    0.0000 C   0  0  0  0  0  0  0  0  0  0  0  0
   -3.4430   -0.7182    0.0000 O   0  0  0  0  0  0  0  0  0  0  0  0
   -2.6401   -3.1891    0.0000 C   0  0  0  0  0  0  0  0  0  0  0  0
   -1.2135   -2.7256    0.0000 C   0  0  0  0  0  0  0  0  0  0  0  0
   -0.0000   -3.6073    0.0000 C   0  0  0  0  0  0  0  0  0  0  0  0
    1.2135   -2.7256    0.0000 N   0  0  0  0  0  0  0  0  0  0  0  0
    0.7500   -1.2990    0.0000 C   0  0  0  0  0  0  0  0  0  0  0  0
    1.5000    0.0000    0.0000 C   0  0  0  0  0  0  0  0  0  0  0  0
    0.7500    1.2990    0.0000 C   0  0  0  0  0  0  0  0  0  0  0  0
   -0.7500    1.2990    0.0000 C   0  0  0  0  0  0  0  0  0  0  0  0
   -1.5000    2.5981    0.0000 C   0  0  0  0  0  0  0  0  0  0  0  0
   -1.5000    0.0000    0.0000 C   0  0  0  0  0  0  0  0  0  0  0  0
   -0.7500   -1.2990    0.0000 N   0  0  0  0  0  0  0  0  0  0  0  0
   -0.0000   -5.1073    0.0000 C   0  0  0  0  0  0  0  0  0  0  0  0
   -1.2990   -5.8573    0.0000 C   0  0  0  0  0  0  0  0  0  0  0  0
   -1.2990   -7.3573    0.0000 C   0  0  0  0  0  0  0  0  0  0  0  0
   -0.0000   -8.1073    0.0000 C   0  0  0  0  0  0  0  0  0  0  0  0
   -0.0000   -9.6073    0.0000 C   0  0  0  0  0  0  0  0  0  0  0  0
    1.2990   -7.3573    0.0000 C   0  0  0  0  0  0  0  0  0  0  0  0
    1.2990   -5.8573    0.0000 C   0  0  0  0  0  0  0  0  0  0  0  0
    5.0981   -1.5000    0.0000 O   0  0  0  0  0  0  0  0  0  0  0  0
    5.0981    0.0000    0.0000 C   0  0  0  0  0  0  0  0  0  0  0  0
    6.3971    0.7500    0.0000 C   0  0  0  0  0  0  0  0  0  0  0  0
    6.3971    2.2500    0.0000 O   0  0  0  0  0  0  0  0  0  0  0  0
    7.6962   -0.0000    0.0000 C   0  0  0  0  0  0  0  0  0  0  0  0
    7.6962   -1.5000    0.0000 O   0  0  0  0  0  0  0  0  0  0  0  0
    8.9952    0.7500    0.0000 O   0  0  0  0  0  0  0  0  0  0  0  0
    3.7990    0.7500    0.0000 C   0  0  0  0  0  0  0  0  0  0  0  0
    3.7990    2.2500    0.0000 O   0  0  0  0  0  0  0  0  0  0  0  0
    2.5000    0.0000    0.0000 O   0  0  0  0  0  0  0  0  0  0  0  0
  1  2  1  0
  2  3  1  0
  2  4  1  0
  4  5  2  0
  4  6  1  0
  6  7  1  0
  7  8  2  0
  8  9  1  0
  9 10  2  0
 10 11  1  0
 11 12  2  0
 12 13  1  0
 13 14  1  0
 13 15  2  0
 15 16  1  0
  8 17  1  0
 17 18  2  0
 18 19  1  0
 19 20  2  0
 20 21  1  0
 20 22  1  0
 22 23  2  0
 24 25  1  0
 25 26  1  0
 26 27  1  0
 26 28  1  0
 28 29  2  0
 28 30  1  0
 25 31  1  0
 31 32  2  0
 31 33  1  0
 16  7  1  0
 16 10  1  0
 23 17  1  0
M  END
$$$$
1340277
     RDKit          2D

 28 30  0  0  0  0  0  0  0  0999 V2000
    6.0000   -2.5981    0.0000 C   0  0  0  0  0  0  0  0  0  0  0  0
    5.2500   -1.2990    0.0000 N   0  0  0  0  0  0  0  0  0  0  0  0
    6.0000    0.0000    0.0000 C   0  0  0  0  0  0  0  0  0  0  0  0
    3.7500   -1.2990    0.0000 C   0  0  0  0  0  0  0  0  0  0  0  0
    3.0000   -2.5981    0.0000 O   0  0  0  0  0  0  0  0  0  0  0  0
    3.0000    0.0000    0.0000 N   0  0  0  0  0  0  0  0  0  0  0  0
    1.5000    0.0000    0.0000 C   0  0  0  0  0  0  0  0  0  0  0  0
    0.7500   -1.2990    0.0000 C   0  0  0  0  0  0  0  0  0  0  0  0
   -0.7500   -1.2990    0.0000 C   0  0  0  0  0  0  0  0  0  0  0  0
   -1.5000    0.0000    0.0000 C   0  0  0  0  0  0  0  0  0  0  0  0
   -3.0000    0.0000    0.0000 C   0  0  0  0  0  0  0  0  0  0  0  0
   -3.7500    1.2990    0.0000 C   0  0  0  0  0  0  0  0  0  0  0  0
   -5.2500    1.2990    0.0000 N   0  0  0  0  0  0  0  0  0  0  0  0
   -6.0000    2.5981    0.0000 C   0  0  0  0  0  0  0  0  0  0  0  0
   -7.5000    2.5981    0.0000 C   0  0  0  0  0  0  0  0  0  0  0  0
   -8.2500    1.2990    0.0000 N   0  0  0  0  0  0  0  0  0  0  0  0
   -7.5000    0.0000    0.0000 C   0  0  0  0  0  0  0  0  0  0  0  0
   -6.0000    0.0000    0.0000 C   0  0  0  0  0  0  0  0  0  0  0  0
   -9.7500    1.2990    0.0000 C   0  0  0  0  0  0  0  0  0  0  0  0
  -10.5000    2.5981    0.0000 C   0  0  0  0  0  0  0  0  0  0  0  0
  -12.0000    2.5981    0.0000 C   0  0  0  0  0  0  0  0  0  0  0  0
  -12.7500    1.2990    0.0000 C   0  0  0  0  0  0  0  0  0  0  0  0
  -12.0000    0.0000    0.0000 C   0  0  0  0  0  0  0  0  0  0  0  0
  -12.7500   -1.2990    0.0000 Cl  0  0  0  0  0  0  0  0  0  0  0  0
  -10.5000    0.0000    0.0000 C   0  0  0  0  0  0  0  0  0  0  0  0
   -9.7500   -1.2990    0.0000 Cl  0  0  0  0  0  0  0  0  0  0  0  0
   -0.7500    1.2990    0.0000 C   0  0  0  0  0  0  0  0  0  0  0  0
    0.7500    1.2990    0.0000 C   0  0  0  0  0  0  0  0  0  0  0  0
  1  2  1  0
  2  3  1  0
  2  4  1  0
  4  5  2  0
  4  6  1  0
  7  6  1  6
  7  8  1  0
  8  9  1  0
  9 10  1  0
 10 11  1  1
 11 12  1  0
 12 13  1  0
 13 14  1  0
 14 15  1  0
 15 16  1  0
 16 17  1  0
 17 18  1  0
 16 19  1  0
 19 20  2  0
 20 21  1  0
 21 22  2  0
 22 23  1  0
 23 24  1  0
 23 25  2  0
 25 26  1  0
 10 27  1  0
 27 28  1  0
 28  7  1  0
 18 13  1  0
 25 19  1  0
M  END
$$$$
157330
     RDKit          2D

 13 13  0  0  0  0  0  0  0  0999 V2000
    6.0000   -2.5981    0.0000 C   0  0  0  0  0  0  0  0  0  0  0  0
    5.2500   -1.2990    0.0000 N   0  0  0  0  0  0  0  0  0  0  0  0
    6.0000    0.0000    0.0000 C   0  0  0  0  0  0  0  0  0  0  0  0
    3.7500   -1.2990    0.0000 C   0  0  0  0  0  0  0  0  0  0  0  0
    3.0000   -2.5981    0.0000 O   0  0  0  0  0  0  0  0  0  0  0  0
    3.0000    0.0000    0.0000 O   0  0  0  0  0  0  0  0  0  0  0  0
    1.5000    0.0000    0.0000 C   0  0  0  0  0  0  0  0  0  0  0  0
    0.7500   -1.2990    0.0000 C   0  0  0  0  0  0  0  0  0  0  0  0
   -0.7500   -1.2990    0.0000 C   0  0  0  0  0  0  0  0  0  0  0  0
   -1.5000    0.0000    0.0000 C   0  0  0  0  0  0  0  0  0  0  0  0
   -0.7500    1.2990    0.0000 N   0  0  0  0  0  4  0  0  0  0  0  0
   -1.5000    2.5981    0.0000 C   0  0  0  0  0  0  0  0  0  0  0  0
    0.7500    1.2990    0.0000 C   0  0  0  0  0  0  0  0  0  0  0  0
  1  2  1  0
  2  3  1  0
  2  4  1  0
  4  5  2  0
  4  6  1  0
  6  7  1  0
  7  8  2  0
  8  9  1  0
  9 10  2  0
 10 11  1  0
 11 12  1  0
 11 13  2  0
 13  7  1  0
M  CHG  1  11   1
M  END
$$$$
709600
     RDKit          2D

 37 40  0  0  0  0  0  0  0  0999 V2000
    2.5981  -12.6073    0.0000 C   0  0  0  0  0  0  0  0  0  0  0  0
    1.2990  -11.8573    0.0000 N   0  0  0  0  0  0  0  0  0  0  0  0
    0.0000  -12.6073    0.0000 C   0  0  0  0  0  0  0  0  0  0  0  0
    1.2990  -10.3573    0.0000 C   0  0  0  0  0  0  0  0  0  0  0  0
    2.5981   -9.6073    0.0000 O   0  0  0  0  0  0  0  0  0  0  0  0
   -0.0000   -9.6073    0.0000 C   0  0  0  0  0  0  0  0  0  0  0  0
   -1.2990  -10.3573    0.0000 C   0  0  0  0  0  0  0  0  0  0  0  0
   -2.5981   -9.6073    0.0000 C   0  0  0  0  0  0  0  0  0  0  0  0
   -2.5981   -8.1073    0.0000 C   0  0  0  0  0  0  0  0  0  0  0  0
   -3.8971   -7.3573    0.0000 N   0  0  0  0  0  0  0  0  0  0  0  0
   -5.1962   -8.1073    0.0000 C   0  0  0  0  0  0  0  0  0  0  0  0
   -5.1962   -9.6073    0.0000 O   0  0  0  0  0  0  0  0  0  0  0  0
   -6.4952   -7.3573    0.0000 C   0  0  0  0  0  0  0  0  0  0  0  0
   -6.4952   -5.8573    0.0000 O   0  0  0  0  0  0  0  0  0  0  0  0
   -7.7942   -8.1073    0.0000 N   0  0  0  0  0  0  0  0  0  0  0  0
   -9.0933   -7.3573    0.0000 C   0  0  0  0  0  0  0  0  0  0  0  0
   -9.0933   -5.8573    0.0000 C   0  0  0  0  0  0  0  0  0  0  0  0
  -10.3923   -5.1073    0.0000 C   0  0  0  0  0  0  0  0  0  0  0  0
  -11.6913   -5.8573    0.0000 C   0  0  0  0  0  0  0  0  0  0  0  0
  -12.9904   -5.1073    0.0000 Cl  0  0  0  0  0  0  0  0  0  0  0  0
  -11.6913   -7.3573    0.0000 C   0  0  0  0  0  0  0  0  0  0  0  0
  -10.3923   -8.1073    0.0000 N   0  0  0  0  0  0  0  0  0  0  0  0
   -1.2990   -7.3573    0.0000 C   0  0  0  0  0  0  0  0  0  0  0  0
   -0.0000   -8.1073    0.0000 C   0  0  0  0  0  0  0  0  0  0  0  0
   -1.2990   -5.8573    0.0000 N   0  0  0  0  0  0  0  0  0  0  0  0
   -0.0000   -5.1073    0.0000 C   0  0  0  0  0  0  0  0  0  0  0  0
    1.2990   -5.8573    0.0000 O   0  0  0  0  0  0  0  0  0  0  0  0
   -0.0000   -3.6073    0.0000 C   0  0  0  0  0  0  0  0  0  0  0  0
    1.2135   -2.7256    0.0000 N   0  0  0  0  0  0  0  0  0  0  0  0
    0.7500   -1.2990    0.0000 C   0  0  0  0  0  0  0  0  0  0  0  0
    1.5000    0.0000    0.0000 C   0  0  0  0  0  0  0  0  0  0  0  0
    0.7500    1.2990    0.0000 C   0  0  0  0  0  0  0  0  0  0  0  0
   -0.7500    1.2990    0.0000 N   0  0  0  0  0  0  0  0  0  0  0  0
   -1.5000    2.5981    0.0000 C   0  0  0  0  0  0  0  0  0  0  0  0
   -1.5000    0.0000    0.0000 C   0  0  0  0  0  0  0  0  0  0  0  0
   -0.7500   -1.2990    0.0000 C   0  0  0  0  0  0  0  0  0  0  0  0
   -1.2135   -2.7256    0.0000 S   0  0  0  0  0  0  0  0  0  0  0  0
  1  2  1  0
  2  3  1  0
  2  4  1  0
  4  5  2  0
  6  4  1  1
  6  7  1  0
  7  8  1  0
  8  9  1  0
  9 10  1  6
 10 11  1  0
 11 12  2  0
 11 13  1  0
 13 14  2  0
 13 15  1  0
 15 16  1  0
 16 17  2  0
 17 18  1  0
 18 19  2  0
 19 20  1  0
 19 21  1  0
 21 22  2  0
  9 23  1  0
 23 24  1  0
 23 25  1  6
 25 26  1  0
 26 27  2  0
 26 28  1  0
 28 29  2  0
 29 30  1  0
 30 31  1  0
 31 32  1  0
 32 33  1  0
 33 34  1  0
 33 35  1  0
 35 36  1  0
 36 37  1  0
 24  6  1  0
 22 16  1  0
 37 28  1  0
 36 30  2  0
M  END
$$$$
1377952
     RDKit          2D

 48 51  0  0  0  0  0  0  0  0999 V2000
    2.5981  -12.6073    0.0000 C   0  0  0  0  0  0  0  0  0  0  0  0
    1.2990  -11.8573    0.0000 N   0  0  0  0  0  0  0  0  0  0  0  0
    0.0000  -12.6073    0.0000 C   0  0  0  0  0  0  0  0  0  0  0  0
    1.2990  -10.3573    0.0000 C   0  0  0  0  0  0  0  0  0  0  0  0
    2.5981   -9.6073    0.0000 O   0  0  0  0  0  0  0  0  0  0  0  0
   -0.0000   -9.6073    0.0000 C   0  0  0  0  0  0  0  0  0  0  0  0
   -1.2990  -10.3573    0.0000 C   0  0  0  0  0  0  0  0  0  0  0  0
   -2.5981   -9.6073    0.0000 C   0  0  0  0  0  0  0  0  0  0  0  0
   -2.5981   -8.1073    0.0000 C   0  0  0  0  0  0  0  0  0  0  0  0
   -3.8971   -7.3573    0.0000 N   0  0  0  0  0  0  0  0  0  0  0  0
   -5.1962   -8.1073    0.0000 C   0  0  0  0  0  0  0  0  0  0  0  0
   -5.1962   -9.6073    0.0000 O   0  0  0  0  0  0  0  0  0  0  0  0
   -6.4952   -7.3573    0.0000 C   0  0  0  0  0  0  0  0  0  0  0  0
   -6.4952   -5.8573    0.0000 O   0  0  0  0  0  0  0  0  0  0  0  0
   -7.7942   -8.1073    0.0000 N   0  0  0  0  0  0  0  0  0  0  0  0
   -9.0933   -7.3573    0.0000 C   0  0  0  0  0  0  0  0  0  0  0  0
   -9.0933   -5.8573    0.0000 C   0  0  0  0  0  0  0  0  0  0  0  0
  -10.3923   -5.1073    0.0000 C   0  0  0  0  0  0  0  0  0  0  0  0
  -11.6913   -5.8573    0.0000 C   0  0  0  0  0  0  0  0  0  0  0  0
  -12.9904   -5.1073    0.0000 Cl  0  0  0  0  0  0  0  0  0  0  0  0
  -11.6913   -7.3573    0.0000 C   0  0  0  0  0  0  0  0  0  0  0  0
  -10.3923   -8.1073    0.0000 N   0  0  0  0  0  0  0  0  0  0  0  0
   -1.2990   -7.3573    0.0000 C   0  0  0  0  0  0  0  0  0  0  0  0
   -0.0000   -8.1073    0.0000 C   0  0  0  0  0  0  0  0  0  0  0  0
   -1.2990   -5.8573    0.0000 N   0  0  0  0  0  0  0  0  0  0  0  0
   -0.0000   -5.1073    0.0000 C   0  0  0  0  0  0  0  0  0  0  0  0
    1.2990   -5.8573    0.0000 O   0  0  0  0  0  0  0  0  0  0  0  0
   -0.0000   -3.6073    0.0000 C   0  0  0  0  0  0  0  0  0  0  0  0
    1.2135   -2.7256    0.0000 N   0  0  0  0  0  0  0  0  0  0  0  0
    0.7500   -1.2990    0.0000 C   0  0  0  0  0  0  0  0  0  0  0  0
    1.5000    0.0000    0.0000 C   0  0  0  0  0  0  0  0  0  0  0  0
    0.7500    1.2990    0.0000 C   0  0  0  0  0  0  0  0  0  0  0  0
   -0.7500    1.2990    0.0000 N   0  0  0  0  0  0  0  0  0  0  0  0
   -1.5000    2.5981    0.0000 C   0  0  0  0  0  0  0  0  0  0  0  0
   -1.5000    0.0000    0.0000 C   0  0  0  0  0  0  0  0  0  0  0  0
   -0.7500   -1.2990    0.0000 C   0  0  0  0  0  0  0  0  0  0  0  0
   -1.2135   -2.7256    0.0000 S   0  0  0  0  0  0  0  0  0  0  0  0
    3.0000    5.0981    0.0000 C   0  0  0  0  0  0  0  0  0  0  0  0
    1.5000    5.0981    0.0000 C   0  0  0  0  0  0  0  0  0  0  0  0
    0.7500    3.7990    0.0000 C   0  0  0  0  0  0  0  0  0  0  0  0
   -0.7500    3.7990    0.0000 C   0  0  0  0  0  0  0  0  0  0  0  0
   -1.5000    5.0981    0.0000 C   0  0  0  0  0  0  0  0  0  0  0  0
   -0.7500    6.3971    0.0000 C   0  0  0  0  0  0  0  0  0  0  0  0
    0.7500    6.3971    0.0000 C   0  0  0  0  0  0  0  0  0  0  0  0
   -3.0000    5.0981    0.0000 S   0  0  0  0  0  0  0  0  0  0  0  0
   -3.0000    6.5981    0.0000 O   0  0  0  0  0  0  0  0  0  0  0  0
   -3.0000    3.5981    0.0000 O   0  0  0  0  0  0  0  0  0  0  0  0
   -4.5000    5.0981    0.0000 O   0  0  0  0  0  0  0  0  0  0  0  0
  1  2  1  0
  2  3  1  0
  2  4  1  0
  4  5  2  0
  6  4  1  1
  6  7  1  0
  7  8  1  0
  8  9  1  0
  9 10  1  6
 10 11  1  0
 11 12  2  0
 11 13  1  0
 13 14  2  0
 13 15  1  0
 15 16  1  0
 16 17  2  0
 17 18  1  0
 18 19  2  0
 19 20  1  0
 19 21  1  0
 21 22  2  0
  9 23  1  0
 23 24  1  0
 23 25  1  6
 25 26  1  0
 26 27  2  0
 26 28  1  0
 28 29  2  0
 29 30  1  0
 30 31  1  0
 31 32  1  0
 32 33  1  0
 33 34  1  0
 33 35  1  0
 35 36  1  0
 36 37  1  0
 38 39  1  0
 39 40  2  0
 40 41  1  0
 41 42  2  0
 42 43  1  0
 43 44  2  0
 42 45  1  0
 45 46  2  0
 45 47  2  0
 45 48  1  0
 24  6  1  0
 22 16  1  0
 37 28  1  0
 36 30  2  0
 44 39  1  0
M  END
$$$$
431376
     RDKit          2D

 35 39  0  0  0  0  0  0  0  0999 V2000
   -5.2500    3.8971    0.0000 C   0  0  0  0  0  0  0  0  0  0  0  0
   -6.0000    2.5981    0.0000 N   0  0  0  0  0  0  0  0  0  0  0  0
   -7.5000    2.5981    0.0000 C   0  0  0  0  0  0  0  0  0  0  0  0
   -5.2500    1.2990    0.0000 C   0  0  0  0  0  0  0  0  0  0  0  0
   -3.7500    1.2990    0.0000 C   0  0  0  0  0  0  0  0  0  0  0  0
   -3.0000    0.0000    0.0000 C   0  0  0  0  0  0  0  0  0  0  0  0
   -3.7500   -1.2990    0.0000 C   0  0  0  0  0  0  0  0  0  0  0  0
   -5.2500   -1.2990    0.0000 C   0  0  0  0  0  0  0  0  0  0  0  0
   -6.0000    0.0000    0.0000 C   0  0  0  0  0  0  0  0  0  0  0  0
   -3.0000   -2.5981    0.0000 C   0  0  0  0  0  0  0  0  0  0  0  0
   -3.7500   -3.8971    0.0000 C   0  0  0  0  0  0  0  0  0  0  0  0
   -3.0000   -5.1962    0.0000 C   0  0  0  0  0  0  0  0  0  0  0  0
   -4.4854   -4.9873    0.0000 C   0  0  0  0  0  0  0  0  0  0  0  0
   -1.5000   -5.1962    0.0000 C   0  0  0  0  0  0  0  0  0  0  0  0
   -1.0365   -6.6227    0.0000 C   0  0  0  0  0  0  0  0  0  0  0  0
   -2.2500   -7.5044    0.0000 C   0  0  0  0  0  0  0  0  0  0  0  0
   -3.4635   -6.6227    0.0000 C   0  0  0  0  0  0  0  0  0  0  0  0
   -4.8338   -6.0126    0.0000 O   0  0  0  0  0  0  0  0  0  0  0  0
   -6.0474   -6.8943    0.0000 C   0  0  0  0  0  0  0  0  0  0  0  0
   -6.0646   -7.8783    0.0000 O   0  0  0  0  0  0  0  0  0  0  0  0
   -7.4177   -6.2842    0.0000 C   0  0  0  0  0  0  0  0  0  0  0  0
   -4.2135   -7.9218    0.0000 C   0  0  0  0  0  0  0  0  0  0  0  0
   -3.4635   -9.2208    0.0000 O   0  0  0  0  0  0  0  0  0  0  0  0
   -5.1903   -8.0417    0.0000 C   0  0  0  0  0  0  0  0  0  0  0  0
   -0.7500   -3.8971    0.0000 C   0  0  0  0  0  0  0  0  0  0  0  0
    0.7500   -3.8971    0.0000 C   0  0  0  0  0  0  0  0  0  0  0  0
    1.5000   -2.5981    0.0000 C   0  0  0  0  0  0  0  0  0  0  0  0
    0.7500   -1.2990    0.0000 C   0  0  0  0  0  0  0  0  0  0  0  0
    1.5000    0.0000    0.0000 C   0  0  0  0  0  0  0  0  0  0  0  0
    0.7500    1.2990    0.0000 C   0  0  0  0  0  0  0  0  0  0  0  0
    1.5000    2.5981    0.0000 O   0  0  0  0  0  0  0  0  0  0  0  0
   -0.7500    1.2990    0.0000 C   0  0  0  0  0  0  0  0  0  0  0  0
   -1.5000    0.0000    0.0000 C   0  0  0  0  0  0  0  0  0  0  0  0
   -0.7500   -1.2990    0.0000 C   0  0  0  0  0  0  0  0  0  0  0  0
   -1.5000   -2.5981    0.0000 C   0  0  0  0  0  0  0  0  0  0  0  0
  1  2  1  0
  2  3  1  0
  2  4  1  0
  4  5  2  0
  5  6  1  0
  6  7  2  0
  7  8  1  0
  8  9  2  0
 10  7  1  6
 10 11  1  0
 11 12  1  0
 12 13  1  6
 12 14  1  0
 14 15  1  6
 15 16  1  0
 16 17  1  0
 17 18  1  1
 18 19  1  0
 19 20  2  0
 19 21  1  0
 17 22  1  0
 22 23  2  0
 22 24  1  0
 14 25  1  0
 25 26  1  1
 26 27  1  0
 27 28  1  0
 28 29  2  0
 29 30  1  0
 30 31  2  0
 30 32  1  0
 32 33  1  0
 33 34  1  0
 34 35  2  0
  9  4  1  0
 35 10  1  0
 17 12  1  0
 35 25  1  0
 34 28  1  0
M  END
$$$$
675254
     RDKit          2D

 29 32  0  0  0  0  0  0  0  0999 V2000
    3.7500   -1.2990    0.0000 C   0  0  0  0  0  0  0  0  0  0  0  0
    3.0000    0.0000    0.0000 N   0  0  0  0  0  0  0  0  0  0  0  0
    3.7500    1.2990    0.0000 C   0  0  0  0  0  0  0  0  0  0  0  0
    1.5000    0.0000    0.0000 C   0  0  0  0  0  0  0  0  0  0  0  0
    0.7500   -1.2990    0.0000 C   0  0  0  0  0  0  0  0  0  0  0  0
   -0.7500   -1.2990    0.0000 C   0  0  0  0  0  0  0  0  0  0  0  0
   -1.5000    0.0000    0.0000 C   0  0  0  0  0  0  0  0  0  0  0  0
   -0.7500    1.2990    0.0000 C   0  0  0  0  0  0  0  0  0  0  0  0
   -1.5000    2.5981    0.0000 C   0  0  0  0  0  0  0  0  0  0  0  0
   -3.0000    2.5981    0.0000 C   0  0  0  0  0  0  0  0  0  0  0  0
   -3.7500    1.2990    0.0000 C   0  0  0  0  0  0  0  0  0  0  0  0
   -5.2500    1.2990    0.0000 C   0  0  0  0  0  0  0  0  0  0  0  0
   -6.0000    2.5981    0.0000 C   0  0  0  0  0  0  0  0  0  0  0  0
   -7.5000    2.5981    0.0000 C   0  0  0  0  0  0  0  0  0  0  0  0
   -8.3817    1.3846    0.0000 C   0  0  0  0  0  0  0  0  0  0  0  0
   -9.8083    1.8481    0.0000 C   0  0  0  0  0  0  0  0  0  0  0  0
  -11.0218    0.9664    0.0000 C   0  0  0  0  0  0  0  0  0  0  0  0
   -9.8083    3.3481    0.0000 N   0  0  0  0  0  0  0  0  0  0  0  0
   -8.3817    3.8116    0.0000 C   0  0  0  0  0  0  0  0  0  0  0  0
   -7.9182    5.2382    0.0000 C   0  0  0  0  0  0  0  0  0  0  0  0
  -11.0218    4.2298    0.0000 C   0  0  0  0  0  0  0  0  0  0  0  0
  -10.8650    5.7215    0.0000 C   0  0  0  0  0  0  0  0  0  0  0  0
  -12.0785    6.6032    0.0000 C   0  0  0  0  0  0  0  0  0  0  0  0
  -13.4488    5.9931    0.0000 C   0  0  0  0  0  0  0  0  0  0  0  0
  -13.6056    4.5013    0.0000 C   0  0  0  0  0  0  0  0  0  0  0  0
  -12.3921    3.6196    0.0000 C   0  0  0  0  0  0  0  0  0  0  0  0
   -3.0000    0.0000    0.0000 N   0  0  0  0  0  4  0  0  0  0  0  0
   -3.7500   -1.2990    0.0000 C   0  0  0  0  0  0  0  0  0  0  0  0
    0.7500    1.2990    0.0000 C   0  0  0  0  0  0  0  0  0  0  0  0
  1  2  1  0
  2  3  1  0
  2  4  1  0
  4  5  2  0
  5  6  1  0
  6  7  2  0
  7  8  1  0
  8  9  1  0
  9 10  2  0
 10 11  1  0
 11 12  1  0
 12 13  2  0
 13 14  1  0
 14 15  1  0
 15 16  2  0
 16 17  1  0
 16 18  1  0
 18 19  1  0
 19 20  1  0
 18 21  1  0
 21 22  2  0
 22 23  1  0
 23 24  2  0
 24 25  1  0
 25 26  2  0
 11 27  2  0
 27 28  1  0
  8 29  2  0
 29  4  1  0
 27  7  1  0
 19 14  2  0
 26 21  1  0
M  CHG  1  27   1
M  END
$$$$
1248748
     RDKit          2D

 87 96  0  0  0  0  0  0  0  0999 V2000
    3.7500   -1.2990    0.0000 C   0  0  0  0  0  0  0  0  0  0  0  0
    3.0000    0.0000    0.0000 N   0  0  0  0  0  0  0  0  0  0  0  0
    3.7500    1.2990    0.0000 C   0  0  0  0  0  0  0  0  0  0  0  0
    1.5000    0.0000    0.0000 C   0  0  0  0  0  0  0  0  0  0  0  0
    0.7500   -1.2990    0.0000 C   0  0  0  0  0  0  0  0  0  0  0  0
   -0.7500   -1.2990    0.0000 C   0  0  0  0  0  0  0  0  0  0  0  0
   -1.5000    0.0000    0.0000 C   0  0  0  0  0  0  0  0  0  0  0  0
   -0.7500    1.2990    0.0000 C   0  0  0  0  0  0  0  0  0  0  0  0
   -1.5000    2.5981    0.0000 C   0  0  0  0  0  0  0  0  0  0  0  0
   -3.0000    2.5981    0.0000 C   0  0  0  0  0  0  0  0  0  0  0  0
   -3.7500    1.2990    0.0000 C   0  0  0  0  0  0  0  0  0  0  0  0
   -5.2500    1.2990    0.0000 C   0  0  0  0  0  0  0  0  0  0  0  0
   -6.0000    2.5981    0.0000 C   0  0  0  0  0  0  0  0  0  0  0  0
   -7.5000    2.5981    0.0000 C   0  0  0  0  0  0  0  0  0  0  0  0
   -8.3817    1.3846    0.0000 C   0  0  0  0  0  0  0  0  0  0  0  0
   -9.8083    1.8481    0.0000 C   0  0  0  0  0  0  0  0  0  0  0  0
  -11.0218    0.9664    0.0000 C   0  0  0  0  0  0  0  0  0  0  0  0
   -9.8083    3.3481    0.0000 N   0  0  0  0  0  0  0  0  0  0  0  0
   -8.3817    3.8116    0.0000 C   0  0  0  0  0  0  0  0  0  0  0  0
   -7.9182    5.2382    0.0000 C   0  0  0  0  0  0  0  0  0  0  0  0
  -11.0218    4.2298    0.0000 C   0  0  0  0  0  0  0  0  0  0  0  0
  -10.8650    5.7215    0.0000 C   0  0  0  0  0  0  0  0  0  0  0  0
  -12.0785    6.6032    0.0000 C   0  0  0  0  0  0  0  0  0  0  0  0
  -13.4488    5.9931    0.0000 C   0  0  0  0  0  0  0  0  0  0  0  0
  -13.6056    4.5013    0.0000 C   0  0  0  0  0  0  0  0  0  0  0  0
  -12.3921    3.6196    0.0000 C   0  0  0  0  0  0  0  0  0  0  0  0
   -3.0000    0.0000    0.0000 N   0  0  0  0  0  4  0  0  0  0  0  0
   -3.7500   -1.2990    0.0000 C   0  0  0  0  0  0  0  0  0  0  0  0
    0.7500    1.2990    0.0000 C   0  0  0  0  0  0  0  0  0  0  0  0
    3.7500    7.6032    0.0000 C   0  0  0  0  0  0  0  0  0  0  0  0
    3.0000    8.9023    0.0000 N   0  0  0  0  0  0  0  0  0  0  0  0
    3.7500   10.2013    0.0000 C   0  0  0  0  0  0  0  0  0  0  0  0
    1.5000    8.9023    0.0000 C   0  0  0  0  0  0  0  0  0  0  0  0
    0.7500    7.6032    0.0000 C   0  0  0  0  0  0  0  0  0  0  0  0
   -0.7500    7.6032    0.0000 C   0  0  0  0  0  0  0  0  0  0  0  0
   -1.5000    8.9023    0.0000 C   0  0  0  0  0  0  0  0  0  0  0  0
   -0.7500   10.2013    0.0000 C   0  0  0  0  0  0  0  0  0  0  0  0
   -1.5000   11.5003    0.0000 C   0  0  0  0  0  0  0  0  0  0  0  0
   -3.0000   11.5003    0.0000 C   0  0  0  0  0  0  0  0  0  0  0  0
   -3.7500   10.2013    0.0000 C   0  0  0  0  0  0  0  0  0  0  0  0
   -5.2500   10.2013    0.0000 C   0  0  0  0  0  0  0  0  0  0  0  0
   -6.0000   11.5003    0.0000 C   0  0  0  0  0  0  0  0  0  0  0  0
   -7.5000   11.5003    0.0000 C   0  0  0  0  0  0  0  0  0  0  0  0
   -8.3817   10.2868    0.0000 C   0  0  0  0  0  0  0  0  0  0  0  0
   -9.8083   10.7503    0.0000 C   0  0  0  0  0  0  0  0  0  0  0  0
  -11.0218    9.8687    0.0000 C   0  0  0  0  0  0  0  0  0  0  0  0
   -9.8083   12.2503    0.0000 N   0  0  0  0  0  0  0  0  0  0  0  0
   -8.3817   12.7139    0.0000 C   0  0  0  0  0  0  0  0  0  0  0  0
   -7.9182   14.1404    0.0000 C   0  0  0  0  0  0  0  0  0  0  0  0
  -11.0218   13.1320    0.0000 C   0  0  0  0  0  0  0  0  0  0  0  0
  -10.8650   14.6238    0.0000 C   0  0  0  0  0  0  0  0  0  0  0  0
  -12.0785   15.5055    0.0000 C   0  0  0  0  0  0  0  0  0  0  0  0
  -13.4488   14.8954    0.0000 C   0  0  0  0  0  0  0  0  0  0  0  0
  -13.6056   13.4036    0.0000 C   0  0  0  0  0  0  0  0  0  0  0  0
  -12.3921   12.5219    0.0000 C   0  0  0  0  0  0  0  0  0  0  0  0
   -3.0000    8.9023    0.0000 N   0  0  0  0  0  4  0  0  0  0  0  0
   -3.7500    7.6032    0.0000 C   0  0  0  0  0  0  0  0  0  0  0  0
    0.7500   10.2013    0.0000 C   0  0  0  0  0  0  0  0  0  0  0  0
    1.1345   20.7957    0.0000 O   0  0  0  0  0  0  0  0  0  0  0  0
    0.7500   21.7016    0.0000 C   0  0  0  0  0  0  0  0  0  0  0  0
    1.5000   23.0007    0.0000 C   0  0  0  0  0  0  0  0  0  0  0  0
    3.0000   23.0007    0.0000 C   0  0  0  0  0  0  0  0  0  0  0  0
    3.7500   21.7016    0.0000 C   0  0  0  0  0  0  0  0  0  0  0  0
    3.0000   20.4026    0.0000 C   0  0  0  0  0  0  0  0  0  0  0  0
    2.0232   20.2826    0.0000 O   0  0  0  0  0  0  0  0  0  0  0  0
    3.7500   19.1035    0.0000 C   0  0  0  0  0  0  0  0  0  0  0  0
    5.2500   19.1035    0.0000 C   0  0  0  0  0  0  0  0  0  0  0  0
    6.0000   20.4026    0.0000 C   0  0  0  0  0  0  0  0  0  0  0  0
    7.5000   20.4026    0.0000 C   0  0  0  0  0  0  0  0  0  0  0  0
    8.2500   21.7016    0.0000 C   0  0  0  0  0  0  0  0  0  0  0  0
    7.5000   23.0007    0.0000 C   0  0  0  0  0  0  0  0  0  0  0  0
    6.0000   23.0007    0.0000 C   0  0  0  0  0  0  0  0  0  0  0  0
    5.2500   21.7016    0.0000 C   0  0  0  0  0  0  0  0  0  0  0  0
    3.0000   17.8045    0.0000 C   0  0  0  0  0  0  0  0  0  0  0  0
    1.5000   17.8045    0.0000 O   0  0  0  0  0  0  0  0  0  0  0  0
    3.7500   16.5055    0.0000 O   0  0  0  0  0  1  0  0  0  0  0  0
    0.7500   24.2997    0.0000 C   0  0  0  0  0  0  0  0  0  0  0  0
    1.5000   25.5987    0.0000 C   0  0  0  0  0  0  0  0  0  0  0  0
    0.7500   26.8978    0.0000 C   0  0  0  0  0  0  0  0  0  0  0  0
   -0.7500   26.8978    0.0000 C   0  0  0  0  0  0  0  0  0  0  0  0
   -1.5000   25.5987    0.0000 C   0  0  0  0  0  0  0  0  0  0  0  0
   -0.7500   24.2997    0.0000 C   0  0  0  0  0  0  0  0  0  0  0  0
   -1.5000   23.0007    0.0000 C   0  0  0  0  0  0  0  0  0  0  0  0
   -0.7500   21.7016    0.0000 C   0  0  0  0  0  0  0  0  0  0  0  0
   -1.5000   20.4026    0.0000 C   0  0  0  0  0  0  0  0  0  0  0  0
   -0.7500   19.1035    0.0000 O   0  0  0  0  0  0  0  0  0  0  0  0
   -3.0000   20.4026    0.0000 O   0  0  0  0  0  1  0  0  0  0  0  0
  1  2  1  0
  2  3  1  0
  2  4  1  0
  4  5  2  0
  5  6  1  0
  6  7  2  0
  7  8  1  0
  8  9  1  0
  9 10  2  0
 10 11  1  0
 11 12  1  0
 12 13  2  0
 13 14  1  0
 14 15  1  0
 15 16  2  0
 16 17  1  0
 16 18  1  0
 18 19  1  0
 19 20  1  0
 18 21  1  0
 21 22  2  0
 22 23  1  0
 23 24  2  0
 24 25  1  0
 25 26  2  0
 11 27  2  0
 27 28  1  0
  8 29  2  0
 30 31  1  0
 31 32  1  0
 31 33  1  0
 33 34  2  0
 34 35  1  0
 35 36  2  0
 36 37  1  0
 37 38  1  0
 38 39  2  0
 39 40  1  0
 40 41  1  0
 41 42  2  0
 42 43  1  0
 43 44  1  0
 44 45  2  0
 45 46  1  0
 45 47  1  0
 47 48  1  0
 48 49  1  0
 47 50  1  0
 50 51  2  0
 51 52  1  0
 52 53  2  0
 53 54  1  0
 54 55  2  0
 40 56  2  0
 56 57  1  0
 37 58  2  0
 59 60  1  0
 60 61  2  0
 61 62  1  0
 62 63  1  0
 63 64  2  0
 64 65  1  0
 64 66  1  0
 66 67  2  0
 67 68  1  0
 68 69  2  0
 69 70  1  0
 70 71  2  0
 71 72  1  0
 72 73  2  0
 66 74  1  0
 74 75  2  0
 74 76  1  0
 61 77  1  0
 77 78  2  0
 78 79  1  0
 79 80  2  0
 80 81  1  0
 81 82  2  0
 82 83  1  0
 83 84  2  0
 84 85  1  0
 85 86  2  0
 85 87  1  0
 29  4  1  0
 27  7  1  0
 19 14  2  0
 26 21  1  0
 58 33  1  0
 56 36  1  0
 48 43  2  0
 55 50  1  0
 84 60  1  0
 73 63  1  0
 73 68  1  0
 82 77  1  0
M  CHG  4  27   1  56   1  76  -1  87  -1
M  END
$$$$
386327
     RDKit          2D

 15 15  0  0  0  0  0  0  0  0999 V2000
    3.7500   -1.2990    0.0000 C   0  0  0  0  0  0  0  0  0  0  0  0
    3.0000    0.0000    0.0000 N   0  0  0  0  0  0  0  0  0  0  0  0
    3.7500    1.2990    0.0000 C   0  0  0  0  0  0  0  0  0  0  0  0
    1.5000    0.0000    0.0000 C   0  0  0  0  0  0  0  0  0  0  0  0
    0.7500   -1.2990    0.0000 N   0  0  0  0  0  0  0  0  0  0  0  0
   -0.7500   -1.2990    0.0000 C   0  0  0  0  0  0  0  0  0  0  0  0
   -1.5000    0.0000    0.0000 N   0  0  0  0  0  0  0  0  0  0  0  0
   -0.7500    1.2990    0.0000 C   0  0  0  0  0  0  0  0  0  0  0  0
    0.7500    1.2990    0.0000 N   0  0  0  0  0  0  0  0  0  0  0  0
   -1.5000    2.5981    0.0000 N   0  0  0  0  0  0  0  0  0  0  0  0
   -0.7500    3.8971    0.0000 C   0  0  0  0  0  0  0  0  0  0  0  0
   -3.0000    2.5981    0.0000 C   0  0  0  0  0  0  0  0  0  0  0  0
   -1.5000   -2.5981    0.0000 N   0  0  0  0  0  0  0  0  0  0  0  0
   -3.0000   -2.5981    0.0000 C   0  0  0  0  0  0  0  0  0  0  0  0
   -0.7500   -3.8971    0.0000 C   0  0  0  0  0  0  0  0  0  0  0  0
  1  2  1  0
  2  3  1  0
  2  4  1  0
  4  5  2  0
  5  6  1  0
  6  7  2  0
  7  8  1  0
  8  9  2  0
  8 10  1  0
 10 11  1  0
 10 12  1  0
  6 13  1  0
 13 14  1  0
 13 15  1  0
  9  4  1  0
M  END
$$$$
161281
     RDKit          2D

 19 20  0  0  0  0  0  0  0  0999 V2000
    0.7500   -6.4952    0.0000 C   0  0  0  0  0  0  0  0  0  0  0  0
    1.5000   -5.1962    0.0000 N   0  0  0  0  0  0  0  0  0  0  0  0
    3.0000   -5.1962    0.0000 C   0  0  0  0  0  0  0  0  0  0  0  0
    0.7500   -3.8971    0.0000 C   0  0  0  0  0  0  0  0  0  0  0  0
    1.5000   -2.5981    0.0000 C   0  0  0  0  0  0  0  0  0  0  0  0
    0.7500   -1.2990    0.0000 C   0  0  0  0  0  0  0  0  0  0  0  0
    1.5000    0.0000    0.0000 C   0  0  0  0  0  0  0  0  0  0  0  0
    0.7500    1.2990    0.0000 C   0  0  0  0  0  0  0  0  0  0  0  0
   -0.7500    1.2990    0.0000 C   0  0  0  0  0  0  0  0  0  0  0  0
   -1.5000    2.5981    0.0000 O   0  0  0  0  0  0  0  0  0  0  0  0
   -1.5000    0.0000    0.0000 C   0  0  0  0  0  0  0  0  0  0  0  0
   -0.7500   -1.2990    0.0000 C   0  0  0  0  0  0  0  0  0  0  0  0
    3.0000   -2.5981    0.0000 C   0  0  0  0  0  0  0  0  0  0  0  0
    2.7395   -1.1209    0.0000 O   0  0  0  0  0  0  0  0  0  0  0  0
    2.7395   -4.0753    0.0000 C   0  0  0  0  0  0  0  0  0  0  0  0
    3.8886   -5.0395    0.0000 C   0  0  0  0  0  0  0  0  0  0  0  0
    5.2981   -4.5264    0.0000 C   0  0  0  0  0  0  0  0  0  0  0  0
    5.5586   -3.0492    0.0000 C   0  0  0  0  0  0  0  0  0  0  0  0
    4.4095   -2.0850    0.0000 C   0  0  0  0  0  0  0  0  0  0  0  0
  1  2  1  0
  2  3  1  0
  2  4  1  0
  4  5  1  0
  5  6  1  0
  6  7  2  0
  7  8  1  0
  8  9  2  0
  9 10  1  0
  9 11  1  0
 11 12  2  0
  5 13  1  0
 13 14  1  0
 13 15  1  0
 15 16  1  0
 16 17  1  0
 17 18  1  0
 18 19  1  0
 12  6  1  0
 19 13  1  0
M  END
$$$$
675679
     RDKit          2D

 27 27  0  0  0  0  0  0  0  0999 V2000
    0.7500   -6.4952    0.0000 C   0  0  0  0  0  0  0  0  0  0  0  0
    1.5000   -5.1962    0.0000 N   0  0  0  0  0  0  0  0  0  0  0  0
    3.0000   -5.1962    0.0000 C   0  0  0  0  0  0  0  0  0  0  0  0
    0.7500   -3.8971    0.0000 C   0  0  0  0  0  0  0  0  0  0  0  0
    1.5000   -2.5981    0.0000 C   0  0  0  0  0  0  0  0  0  0  0  0
    0.7500   -1.2990    0.0000 C   0  0  0  0  0  0  0  0  0  0  0  0
    1.5000    0.0000    0.0000 C   0  0  0  0  0  0  0  0  0  0  0  0
    0.7500    1.2990    0.0000 C   0  0  0  0  0  0  0  0  0  0  0  0
   -0.7500    1.2990    0.0000 C   0  0  0  0  0  0  0  0  0  0  0  0
   -1.5000    2.5981    0.0000 O   0  0  0  0  0  0  0  0  0  0  0  0
   -1.5000    0.0000    0.0000 C   0  0  0  0  0  0  0  0  0  0  0  0
   -0.7500   -1.2990    0.0000 C   0  0  0  0  0  0  0  0  0  0  0  0
    3.0000   -2.5981    0.0000 C   0  0  0  0  0  0  0  0  0  0  0  0
    2.7395   -1.1209    0.0000 O   0  0  0  0  0  0  0  0  0  0  0  0
    2.7395   -4.0753    0.0000 C   0  0  0  0  0  0  0  0  0  0  0  0
    3.8886   -5.0395    0.0000 C   0  0  0  0  0  0  0  0  0  0  0  0
    5.2981   -4.5264    0.0000 C   0  0  0  0  0  0  0  0  0  0  0  0
    5.5586   -3.0492    0.0000 C   0  0  0  0  0  0  0  0  0  0  0  0
    4.4095   -2.0850    0.0000 C   0  0  0  0  0  0  0  0  0  0  0  0
    6.5586    0.0000    0.0000 O   0  0  0  0  0  0  0  0  0  0  0  0
    7.8576    0.7500    0.0000 C   0  0  0  0  0  0  0  0  0  0  0  0
    7.8576    2.2500    0.0000 O   0  0  0  0  0  0  0  0  0  0  0  0
    9.1567    0.0000    0.0000 C   0  0  0  0  0  0  0  0  0  0  0  0
   10.4557    0.7500    0.0000 C   0  0  0  0  0  0  0  0  0  0  0  0
   11.7548   -0.0000    0.0000 C   0  0  0  0  0  0  0  0  0  0  0  0
   11.7548   -1.5000    0.0000 O   0  0  0  0  0  0  0  0  0  0  0  0
   13.0538    0.7500    0.0000 O   0  0  0  0  0  0  0  0  0  0  0  0
  1  2  1  0
  2  3  1  0
  2  4  1  0
  4  5  1  0
  5  6  1  0
  6  7  2  0
  7  8  1  0
  8  9  2  0
  9 10  1  0
  9 11  1  0
 11 12  2  0
  5 13  1  0
 13 14  1  0
 13 15  1  0
 15 16  1  0
 16 17  1  0
 17 18  1  0
 18 19  1  0
 20 21  1  0
 21 22  2  0
 21 23  1  0
 23 24  1  0
 24 25  1  0
 25 26  2  0
 25 27  1  0
 12  6  1  0
 19 13  1  0
M  END
$$$$
1592383
     RDKit          2D

 27 27  0  0  0  0  0  0  0  0999 V2000
    0.7500   -6.4952    0.0000 C   0  0  0  0  0  0  0  0  0  0  0  0
    1.5000   -5.1962    0.0000 N   0  0  0  0  0  0  0  0  0  0  0  0
    3.0000   -5.1962    0.0000 C   0  0  0  0  0  0  0  0  0  0  0  0
    0.7500   -3.8971    0.0000 C   0  0  0  0  0  0  0  0  0  0  0  0
    1.5000   -2.5981    0.0000 C   0  0  0  0  0  0  0  0  0  0  0  0
    0.7500   -1.2990    0.0000 C   0  0  0  0  0  0  0  0  0  0  0  0
    1.5000    0.0000    0.0000 C   0  0  0  0  0  0  0  0  0  0  0  0
    0.7500    1.2990    0.0000 C   0  0  0  0  0  0  0  0  0  0  0  0
   -0.7500    1.2990    0.0000 C   0  0  0  0  0  0  0  0  0  0  0  0
   -1.5000    2.5981    0.0000 O   0  0  0  0  0  0  0  0  0  0  0  0
   -1.5000    0.0000    0.0000 C   0  0  0  0  0  0  0  0  0  0  0  0
   -0.7500   -1.2990    0.0000 C   0  0  0  0  0  0  0  0  0  0  0  0
    3.0000   -2.5981    0.0000 C   0  0  0  0  0  0  0  0  0  0  0  0
    2.7395   -1.1209    0.0000 O   0  0  0  0  0  0  0  0  0  0  0  0
    2.7395   -4.0753    0.0000 C   0  0  0  0  0  0  0  0  0  0  0  0
    3.8886   -5.0395    0.0000 C   0  0  0  0  0  0  0  0  0  0  0  0
    5.2981   -4.5264    0.0000 C   0  0  0  0  0  0  0  0  0  0  0  0
    5.5586   -3.0492    0.0000 C   0  0  0  0  0  0  0  0  0  0  0  0
    4.4095   -2.0850    0.0000 C   0  0  0  0  0  0  0  0  0  0  0  0
    6.5586   -1.2990    0.0000 O   0  0  0  0  0  0  0  0  0  0  0  0
    8.0586   -1.2990    0.0000 C   0  0  0  0  0  0  0  0  0  0  0  0
    8.8086   -2.5981    0.0000 O   0  0  0  0  0  0  0  0  0  0  0  0
    8.8086    0.0000    0.0000 C   0  0  0  0  0  0  0  0  0  0  0  0
   10.3086    0.0000    0.0000 C   0  0  0  0  0  0  0  0  0  0  0  0
   11.0586    1.2990    0.0000 C   0  0  0  0  0  0  0  0  0  0  0  0
   10.3086    2.5981    0.0000 O   0  0  0  0  0  0  0  0  0  0  0  0
   12.5586    1.2990    0.0000 O   0  0  0  0  0  0  0  0  0  0  0  0
  1  2  1  0
  2  3  1  0
  2  4  1  0
  4  5  1  0
  5  6  1  0
  6  7  2  0
  7  8  1  0
  8  9  2  0
  9 10  1  0
  9 11  1  0
 11 12  2  0
  5 13  1  0
 13 14  1  0
 13 15  1  0
 15 16  1  0
 16 17  1  0
 17 18  1  0
 18 19  1  0
 20 21  1  0
 21 22  2  0
 21 23  1  0
 23 24  2  0
 24 25  1  0
 25 26  2  0
 25 27  1  0
 12  6  1  0
 19 13  1  0
M  END
$$$$
54051
     RDKit          2D

 19 20  0  0  0  0  0  0  0  0999 V2000
    1.5000   -7.7942    0.0000 C   0  0  0  0  0  0  0  0  0  0  0  0
    0.7500   -6.4952    0.0000 N   0  0  0  0  0  0  0  0  0  0  0  0
   -0.7500   -6.4952    0.0000 C   0  0  0  0  0  0  0  0  0  0  0  0
    1.5000   -5.1962    0.0000 C   0  0  0  0  0  0  0  0  0  0  0  0
    0.7500   -3.8971    0.0000 C   0  0  0  0  0  0  0  0  0  0  0  0
    1.5000   -2.5981    0.0000 C   0  0  0  0  0  0  0  0  0  0  0  0
    0.7500   -1.2990    0.0000 C   0  0  0  0  0  0  0  0  0  0  0  0
    1.5000    0.0000    0.0000 C   0  0  0  0  0  0  0  0  0  0  0  0
    0.7500    1.2990    0.0000 C   0  0  0  0  0  0  0  0  0  0  0  0
   -0.7500    1.2990    0.0000 C   0  0  0  0  0  0  0  0  0  0  0  0
   -1.5000    2.5981    0.0000 Br  0  0  0  0  0  0  0  0  0  0  0  0
   -1.5000    0.0000    0.0000 C   0  0  0  0  0  0  0  0  0  0  0  0
   -0.7500   -1.2990    0.0000 C   0  0  0  0  0  0  0  0  0  0  0  0
    3.0000   -2.5981    0.0000 C   0  0  0  0  0  0  0  0  0  0  0  0
    3.7500   -3.8971    0.0000 C   0  0  0  0  0  0  0  0  0  0  0  0
    5.2500   -3.8971    0.0000 C   0  0  0  0  0  0  0  0  0  0  0  0
    6.0000   -2.5981    0.0000 C   0  0  0  0  0  0  0  0  0  0  0  0
    5.2500   -1.2990    0.0000 C   0  0  0  0  0  0  0  0  0  0  0  0
    3.7500   -1.2990    0.0000 N   0  0  0  0  0  0  0  0  0  0  0  0
  1  2  1  0
  2  3  1  0
  2  4  1  0
  4  5  1  0
  5  6  1  0
  6  7  1  0
  7  8  2  0
  8  9  1  0
  9 10  2  0
 10 11  1  0
 10 12  1  0
 12 13  2  0
  6 14  1  0
 14 15  2  0
 15 16  1  0
 16 17  2  0
 17 18  1  0
 18 19  2  0
 13  7  1  0
 19 14  1  0
M  END
$$$$
674912
     RDKit          2D

 27 27  0  0  0  0  0  0  0  0999 V2000
    1.5000   -7.7942    0.0000 C   0  0  0  0  0  0  0  0  0  0  0  0
    0.7500   -6.4952    0.0000 N   0  0  0  0  0  0  0  0  0  0  0  0
   -0.7500   -6.4952    0.0000 C   0  0  0  0  0  0  0  0  0  0  0  0
    1.5000   -5.1962    0.0000 C   0  0  0  0  0  0  0  0  0  0  0  0
    0.7500   -3.8971    0.0000 C   0  0  0  0  0  0  0  0  0  0  0  0
    1.5000   -2.5981    0.0000 C   0  0  0  0  0  0  0  0  0  0  0  0
    0.7500   -1.2990    0.0000 C   0  0  0  0  0  0  0  0  0  0  0  0
    1.5000    0.0000    0.0000 C   0  0  0  0  0  0  0  0  0  0  0  0
    0.7500    1.2990    0.0000 C   0  0  0  0  0  0  0  0  0  0  0  0
   -0.7500    1.2990    0.0000 C   0  0  0  0  0  0  0  0  0  0  0  0
   -1.5000    2.5981    0.0000 Br  0  0  0  0  0  0  0  0  0  0  0  0
   -1.5000    0.0000    0.0000 C   0  0  0  0  0  0  0  0  0  0  0  0
   -0.7500   -1.2990    0.0000 C   0  0  0  0  0  0  0  0  0  0  0  0
    3.0000   -2.5981    0.0000 C   0  0  0  0  0  0  0  0  0  0  0  0
    3.7500   -3.8971    0.0000 C   0  0  0  0  0  0  0  0  0  0  0  0
    5.2500   -3.8971    0.0000 C   0  0  0  0  0  0  0  0  0  0  0  0
    6.0000   -2.5981    0.0000 C   0  0  0  0  0  0  0  0  0  0  0  0
    5.2500   -1.2990    0.0000 C   0  0  0  0  0  0  0  0  0  0  0  0
    3.7500   -1.2990    0.0000 N   0  0  0  0  0  0  0  0  0  0  0  0
    7.0000   -1.2990    0.0000 O   0  0  0  0  0  0  0  0  0  0  0  0
    8.5000   -1.2990    0.0000 C   0  0  0  0  0  0  0  0  0  0  0  0
    9.2500   -2.5981    0.0000 O   0  0  0  0  0  0  0  0  0  0  0  0
    9.2500    0.0000    0.0000 C   0  0  0  0  0  0  0  0  0  0  0  0
   10.7500    0.0000    0.0000 C   0  0  0  0  0  0  0  0  0  0  0  0
   11.5000   -1.2990    0.0000 C   0  0  0  0  0  0  0  0  0  0  0  0
   10.7500   -2.5981    0.0000 O   0  0  0  0  0  0  0  0  0  0  0  0
   13.0000   -1.2990    0.0000 O   0  0  0  0  0  0  0  0  0  0  0  0
  1  2  1  0
  2  3  1  0
  2  4  1  0
  4  5  1  0
  5  6  1  0
  6  7  1  0
  7  8  2  0
  8  9  1  0
  9 10  2  0
 10 11  1  0
 10 12  1  0
 12 13  2  0
  6 14  1  0
 14 15  2  0
 15 16  1  0
 16 17  2  0
 17 18  1  0
 18 19  2  0
 20 21  1  0
 21 22  2  0
 21 23  1  0
 23 24  2  0
 24 25  1  0
 25 26  2  0
 25 27  1  0
 13  7  1  0
 19 14  1  0
M  END
$$$$
10358
     RDKit          2D

 19 20  0  0  0  0  0  0  0  0999 V2000
    1.5000   -7.7942    0.0000 C   0  0  0  0  0  0  0  0  0  0  0  0
    0.7500   -6.4952    0.0000 N   0  0  0  0  0  0  0  0  0  0  0  0
   -0.7500   -6.4952    0.0000 C   0  0  0  0  0  0  0  0  0  0  0  0
    1.5000   -5.1962    0.0000 C   0  0  0  0  0  0  0  0  0  0  0  0
    0.7500   -3.8971    0.0000 C   0  0  0  0  0  0  0  0  0  0  0  0
    1.5000   -2.5981    0.0000 C   0  0  0  0  0  0  0  0  0  0  0  0
    0.7500   -1.2990    0.0000 C   0  0  0  0  0  0  0  0  0  0  0  0
    1.5000    0.0000    0.0000 C   0  0  0  0  0  0  0  0  0  0  0  0
    0.7500    1.2990    0.0000 C   0  0  0  0  0  0  0  0  0  0  0  0
   -0.7500    1.2990    0.0000 C   0  0  0  0  0  0  0  0  0  0  0  0
   -1.5000    2.5981    0.0000 Cl  0  0  0  0  0  0  0  0  0  0  0  0
   -1.5000    0.0000    0.0000 C   0  0  0  0  0  0  0  0  0  0  0  0
   -0.7500   -1.2990    0.0000 C   0  0  0  0  0  0  0  0  0  0  0  0
    3.0000   -2.5981    0.0000 C   0  0  0  0  0  0  0  0  0  0  0  0
    3.7500   -3.8971    0.0000 C   0  0  0  0  0  0  0  0  0  0  0  0
    5.2500   -3.8971    0.0000 C   0  0  0  0  0  0  0  0  0  0  0  0
    6.0000   -2.5981    0.0000 C   0  0  0  0  0  0  0  0  0  0  0  0
    5.2500   -1.2990    0.0000 C   0  0  0  0  0  0  0  0  0  0  0  0
    3.7500   -1.2990    0.0000 N   0  0  0  0  0  0  0  0  0  0  0  0
  1  2  1  0
  2  3  1  0
  2  4  1  0
  4  5  1  0
  5  6  1  0
  6  7  1  0
  7  8  2  0
  8  9  1  0
  9 10  2  0
 10 11  1  0
 10 12  1  0
 12 13  2  0
  6 14  1  0
 14 15  2  0
 15 16  1  0
 16 17  2  0
 17 18  1  0
 18 19  2  0
 13  7  1  0
 19 14  1  0
M  END
$$$$
496910
     RDKit          2D

 27 27  0  0  0  0  0  0  0  0999 V2000
    1.5000   -7.7942    0.0000 C   0  0  0  0  0  0  0  0  0  0  0  0
    0.7500   -6.4952    0.0000 N   0  0  0  0  0  0  0  0  0  0  0  0
   -0.7500   -6.4952    0.0000 C   0  0  0  0  0  0  0  0  0  0  0  0
    1.5000   -5.1962    0.0000 C   0  0  0  0  0  0  0  0  0  0  0  0
    0.7500   -3.8971    0.0000 C   0  0  0  0  0  0  0  0  0  0  0  0
    1.5000   -2.5981    0.0000 C   0  0  0  0  0  0  0  0  0  0  0  0
    0.7500   -1.2990    0.0000 C   0  0  0  0  0  0  0  0  0  0  0  0
    1.5000    0.0000    0.0000 C   0  0  0  0  0  0  0  0  0  0  0  0
    0.7500    1.2990    0.0000 C   0  0  0  0  0  0  0  0  0  0  0  0
   -0.7500    1.2990    0.0000 C   0  0  0  0  0  0  0  0  0  0  0  0
   -1.5000    2.5981    0.0000 Cl  0  0  0  0  0  0  0  0  0  0  0  0
   -1.5000    0.0000    0.0000 C   0  0  0  0  0  0  0  0  0  0  0  0
   -0.7500   -1.2990    0.0000 C   0  0  0  0  0  0  0  0  0  0  0  0
    3.0000   -2.5981    0.0000 C   0  0  0  0  0  0  0  0  0  0  0  0
    3.7500   -3.8971    0.0000 C   0  0  0  0  0  0  0  0  0  0  0  0
    5.2500   -3.8971    0.0000 C   0  0  0  0  0  0  0  0  0  0  0  0
    6.0000   -2.5981    0.0000 C   0  0  0  0  0  0  0  0  0  0  0  0
    5.2500   -1.2990    0.0000 C   0  0  0  0  0  0  0  0  0  0  0  0
    3.7500   -1.2990    0.0000 N   0  0  0  0  0  0  0  0  0  0  0  0
    7.0000   -1.2990    0.0000 O   0  0  0  0  0  0  0  0  0  0  0  0
    8.5000   -1.2990    0.0000 C   0  0  0  0  0  0  0  0  0  0  0  0
    9.2500   -2.5981    0.0000 O   0  0  0  0  0  0  0  0  0  0  0  0
    9.2500    0.0000    0.0000 C   0  0  0  0  0  0  0  0  0  0  0  0
   10.7500    0.0000    0.0000 C   0  0  0  0  0  0  0  0  0  0  0  0
   11.5000   -1.2990    0.0000 C   0  0  0  0  0  0  0  0  0  0  0  0
   10.7500   -2.5981    0.0000 O   0  0  0  0  0  0  0  0  0  0  0  0
   13.0000   -1.2990    0.0000 O   0  0  0  0  0  0  0  0  0  0  0  0
  1  2  1  0
  2  3  1  0
  2  4  1  0
  4  5  1  0
  5  6  1  0
  6  7  1  0
  7  8  2  0
  8  9  1  0
  9 10  2  0
 10 11  1  0
 10 12  1  0
 12 13  2  0
  6 14  1  0
 14 15  2  0
 15 16  1  0
 16 17  2  0
 17 18  1  0
 18 19  2  0
 20 21  1  0
 21 22  2  0
 21 23  1  0
 23 24  2  0
 24 25  1  0
 25 26  2  0
 25 27  1  0
 13  7  1  0
 19 14  1  0
M  END
$$$$
675264
     RDKit          2D

 20 21  0  0  0  0  0  0  0  0999 V2000
    6.0000   -5.1962    0.0000 C   0  0  0  0  0  0  0  0  0  0  0  0
    4.5000   -5.1962    0.0000 N   0  0  0  0  0  0  0  0  0  0  0  0
    3.7500   -6.4952    0.0000 C   0  0  0  0  0  0  0  0  0  0  0  0
    3.7500   -3.8971    0.0000 C   0  0  0  0  0  0  0  0  0  0  0  0
    2.2500   -3.8971    0.0000 C   0  0  0  0  0  0  0  0  0  0  0  0
    1.5000   -2.5981    0.0000 C   0  0  0  0  0  0  0  0  0  0  0  0
    0.2010   -3.3481    0.0000 O   0  0  0  0  0  0  0  0  0  0  0  0
    0.7500   -1.2990    0.0000 C   0  0  0  0  0  0  0  0  0  0  0  0
   -0.7500   -1.2990    0.0000 C   0  0  0  0  0  0  0  0  0  0  0  0
   -1.5000    0.0000    0.0000 C   0  0  0  0  0  0  0  0  0  0  0  0
   -0.7500    1.2990    0.0000 C   0  0  0  0  0  0  0  0  0  0  0  0
    0.7500    1.2990    0.0000 C   0  0  0  0  0  0  0  0  0  0  0  0
    1.5000    0.0000    0.0000 C   0  0  0  0  0  0  0  0  0  0  0  0
    2.7990   -1.8481    0.0000 C   0  0  0  0  0  0  0  0  0  0  0  0
    4.0981   -2.5981    0.0000 C   0  0  0  0  0  0  0  0  0  0  0  0
    5.3971   -1.8481    0.0000 C   0  0  0  0  0  0  0  0  0  0  0  0
    5.3971   -0.3481    0.0000 C   0  0  0  0  0  0  0  0  0  0  0  0
    4.0981    0.4019    0.0000 C   0  0  0  0  0  0  0  0  0  0  0  0
    2.7990   -0.3481    0.0000 C   0  0  0  0  0  0  0  0  0  0  0  0
    2.2256    0.2057    0.0000 Cl  0  0  0  0  0  0  0  0  0  0  0  0
  1  2  1  0
  2  3  1  0
  2  4  1  0
  4  5  1  0
  5  6  1  0
  6  7  1  0
  6  8  1  0
  8  9  2  0
  9 10  1  0
 10 11  2  0
 11 12  1  0
 12 13  2  0
  6 14  1  0
 14 15  2  0
 15 16  1  0
 16 17  2  0
 17 18  1  0
 18 19  2  0
 19 20  1  0
 13  8  1  0
 19 14  1  0
M  END
$$$$
79047
     RDKit          2D

 20 22  0  0  0  0  0  0  0  0999 V2000
   -4.6904   -6.5871    0.0000 C   0  0  0  0  0  0  0  0  0  0  0  0
   -4.3786   -5.1199    0.0000 N   0  0  0  0  0  0  0  0  0  0  0  0
   -5.4933   -4.1162    0.0000 C   0  0  0  0  0  0  0  0  0  0  0  0
   -2.9520   -4.6564    0.0000 C   0  0  0  0  0  0  0  0  0  0  0  0
   -2.6401   -3.1891    0.0000 C   0  0  0  0  0  0  0  0  0  0  0  0
   -1.2135   -2.7256    0.0000 C   0  0  0  0  0  0  0  0  0  0  0  0
   -0.0000   -3.6073    0.0000 C   0  0  0  0  0  0  0  0  0  0  0  0
    1.2135   -2.7256    0.0000 N   0  0  0  0  0  0  0  0  0  0  0  0
    0.7500   -1.2990    0.0000 C   0  0  0  0  0  0  0  0  0  0  0  0
    1.5000    0.0000    0.0000 C   0  0  0  0  0  0  0  0  0  0  0  0
    0.7500    1.2990    0.0000 C   0  0  0  0  0  0  0  0  0  0  0  0
   -0.7500    1.2990    0.0000 C   0  0  0  0  0  0  0  0  0  0  0  0
   -1.5000    2.5981    0.0000 C   0  0  0  0  0  0  0  0  0  0  0  0
   -0.7500    3.8971    0.0000 N   0  0  0  0  0  0  0  0  0  0  0  0
   -1.3601    5.2674    0.0000 C   0  0  0  0  0  0  0  0  0  0  0  0
   -0.2454    6.2711    0.0000 N   0  0  0  0  0  0  0  0  0  0  0  0
    1.0537    5.5211    0.0000 C   0  0  0  0  0  0  0  0  0  0  0  0
    0.7418    4.0539    0.0000 N   0  0  0  0  0  0  0  0  0  0  0  0
   -1.5000    0.0000    0.0000 C   0  0  0  0  0  0  0  0  0  0  0  0
   -0.7500   -1.2990    0.0000 C   0  0  0  0  0  0  0  0  0  0  0  0
  1  2  1  0
  2  3  1  0
  2  4  1  0
  4  5  1  0
  5  6  1  0
  6  7  2  0
  7  8  1  0
  8  9  1  0
  9 10  2  0
 10 11  1  0
 11 12  2  0
 12 13  1  0
 13 14  1  0
 14 15  1  0
 15 16  2  0
 16 17  1  0
 17 18  2  0
 12 19  1  0
 19 20  2  0
 20  6  1  0
 20  9  1  0
 18 14  1  0
M  END
$$$$
674983
     RDKit          2D

 29 31  0  0  0  0  0  0  0  0999 V2000
   -4.6904   -6.5871    0.0000 C   0  0  0  0  0  0  0  0  0  0  0  0
   -4.3786   -5.1199    0.0000 N   0  0  0  0  0  0  0  0  0  0  0  0
   -5.4933   -4.1162    0.0000 C   0  0  0  0  0  0  0  0  0  0  0  0
   -2.9520   -4.6564    0.0000 C   0  0  0  0  0  0  0  0  0  0  0  0
   -2.6401   -3.1891    0.0000 C   0  0  0  0  0  0  0  0  0  0  0  0
   -1.2135   -2.7256    0.0000 C   0  0  0  0  0  0  0  0  0  0  0  0
   -0.0000   -3.6073    0.0000 C   0  0  0  0  0  0  0  0  0  0  0  0
    1.2135   -2.7256    0.0000 N   0  0  0  0  0  0  0  0  0  0  0  0
    0.7500   -1.2990    0.0000 C   0  0  0  0  0  0  0  0  0  0  0  0
    1.5000    0.0000    0.0000 C   0  0  0  0  0  0  0  0  0  0  0  0
    0.7500    1.2990    0.0000 C   0  0  0  0  0  0  0  0  0  0  0  0
   -0.7500    1.2990    0.0000 C   0  0  0  0  0  0  0  0  0  0  0  0
   -1.5000    2.5981    0.0000 C   0  0  0  0  0  0  0  0  0  0  0  0
   -0.7500    3.8971    0.0000 N   0  0  0  0  0  0  0  0  0  0  0  0
   -1.3601    5.2674    0.0000 C   0  0  0  0  0  0  0  0  0  0  0  0
   -0.2454    6.2711    0.0000 N   0  0  0  0  0  0  0  0  0  0  0  0
    1.0537    5.5211    0.0000 C   0  0  0  0  0  0  0  0  0  0  0  0
    0.7418    4.0539    0.0000 N   0  0  0  0  0  0  0  0  0  0  0  0
   -1.5000    0.0000    0.0000 C   0  0  0  0  0  0  0  0  0  0  0  0
   -0.7500   -1.2990    0.0000 C   0  0  0  0  0  0  0  0  0  0  0  0
    7.7500   -1.2990    0.0000 O   0  0  0  0  0  0  0  0  0  0  0  0
    7.0000    0.0000    0.0000 C   0  0  0  0  0  0  0  0  0  0  0  0
    7.7500    1.2990    0.0000 O   0  0  0  0  0  0  0  0  0  0  0  0
    5.5000    0.0000    0.0000 C   0  0  0  0  0  0  0  0  0  0  0  0
    4.7500   -1.2990    0.0000 C   0  0  0  0  0  0  0  0  0  0  0  0
    3.2500   -1.2990    0.0000 C   0  0  0  0  0  0  0  0  0  0  0  0
    2.5000    0.0000    0.0000 C   0  0  0  0  0  0  0  0  0  0  0  0
    3.2500    1.2990    0.0000 C   0  0  0  0  0  0  0  0  0  0  0  0
    4.7500    1.2990    0.0000 C   0  0  0  0  0  0  0  0  0  0  0  0
  1  2  1  0
  2  3  1  0
  2  4  1  0
  4  5  1  0
  5  6  1  0
  6  7  2  0
  7  8  1  0
  8  9  1  0
  9 10  2  0
 10 11  1  0
 11 12  2  0
 12 13  1  0
 13 14  1  0
 14 15  1  0
 15 16  2  0
 16 17  1  0
 17 18  2  0
 12 19  1  0
 19 20  2  0
 21 22  1  0
 22 23  2  0
 22 24  1  0
 24 25  2  0
 25 26  1  0
 26 27  2  0
 27 28  1  0
 28 29  2  0
 20  6  1  0
 20  9  1  0
 18 14  1  0
 29 24  1  0
M  END
$$$$
420985
     RDKit          2D

 23 25  0  0  0  0  0  0  0  0999 V2000
   -4.6904   -6.5871    0.0000 C   0  0  0  0  0  0  0  0  0  0  0  0
   -4.3786   -5.1199    0.0000 N   0  0  0  0  0  0  0  0  0  0  0  0
   -5.4933   -4.1162    0.0000 C   0  0  0  0  0  0  0  0  0  0  0  0
   -2.9520   -4.6564    0.0000 C   0  0  0  0  0  0  0  0  0  0  0  0
   -2.6401   -3.1891    0.0000 C   0  0  0  0  0  0  0  0  0  0  0  0
   -1.2135   -2.7256    0.0000 C   0  0  0  0  0  0  0  0  0  0  0  0
   -0.0000   -3.6073    0.0000 C   0  0  0  0  0  0  0  0  0  0  0  0
    1.2135   -2.7256    0.0000 N   0  0  0  0  0  0  0  0  0  0  0  0
    0.7500   -1.2990    0.0000 C   0  0  0  0  0  0  0  0  0  0  0  0
    1.5000    0.0000    0.0000 C   0  0  0  0  0  0  0  0  0  0  0  0
    0.7500    1.2990    0.0000 C   0  0  0  0  0  0  0  0  0  0  0  0
   -0.7500    1.2990    0.0000 C   0  0  0  0  0  0  0  0  0  0  0  0
   -1.5000    2.5981    0.0000 C   0  0  0  0  0  0  0  0  0  0  0  0
   -0.7500    3.8971    0.0000 S   0  0  0  0  0  0  0  0  0  0  0  0
   -2.0490    4.6471    0.0000 O   0  0  0  0  0  0  0  0  0  0  0  0
    0.5490    3.1471    0.0000 O   0  0  0  0  0  0  0  0  0  0  0  0
    0.0000    5.1962    0.0000 N   0  0  0  0  0  0  0  0  0  0  0  0
   -0.6101    6.5665    0.0000 C   0  0  0  0  0  0  0  0  0  0  0  0
    0.5046    7.5702    0.0000 C   0  0  0  0  0  0  0  0  0  0  0  0
    1.8037    6.8202    0.0000 C   0  0  0  0  0  0  0  0  0  0  0  0
    1.4918    5.3529    0.0000 C   0  0  0  0  0  0  0  0  0  0  0  0
   -1.5000    0.0000    0.0000 C   0  0  0  0  0  0  0  0  0  0  0  0
   -0.7500   -1.2990    0.0000 C   0  0  0  0  0  0  0  0  0  0  0  0
  1  2  1  0
  2  3  1  0
  2  4  1  0
  4  5  1  0
  5  6  1  0
  6  7  2  0
  7  8  1  0
  8  9  1  0
  9 10  2  0
 10 11  1  0
 11 12  2  0
 12 13  1  0
 13 14  1  0
 14 15  2  0
 14 16  2  0
 14 17  1  0
 17 18  1  0
 18 19  1  0
 19 20  1  0
 20 21  1  0
 12 22  1  0
 22 23  2  0
 23  6  1  0
 23  9  1  0
 21 17  1  0
M  END
$$$$
674472
     RDKit          2D

 32 33  0  0  0  0  0  0  0  0999 V2000
   -4.6904   -6.5871    0.0000 C   0  0  0  0  0  0  0  0  0  0  0  0
   -4.3786   -5.1199    0.0000 N   0  0  0  0  0  0  0  0  0  0  0  0
   -5.4933   -4.1162    0.0000 C   0  0  0  0  0  0  0  0  0  0  0  0
   -2.9520   -4.6564    0.0000 C   0  0  0  0  0  0  0  0  0  0  0  0
   -2.6401   -3.1891    0.0000 C   0  0  0  0  0  0  0  0  0  0  0  0
   -1.2135   -2.7256    0.0000 C   0  0  0  0  0  0  0  0  0  0  0  0
   -0.0000   -3.6073    0.0000 C   0  0  0  0  0  0  0  0  0  0  0  0
    1.2135   -2.7256    0.0000 N   0  0  0  0  0  0  0  0  0  0  0  0
    0.7500   -1.2990    0.0000 C   0  0  0  0  0  0  0  0  0  0  0  0
    1.5000    0.0000    0.0000 C   0  0  0  0  0  0  0  0  0  0  0  0
    0.7500    1.2990    0.0000 C   0  0  0  0  0  0  0  0  0  0  0  0
   -0.7500    1.2990    0.0000 C   0  0  0  0  0  0  0  0  0  0  0  0
   -1.5000    2.5981    0.0000 C   0  0  0  0  0  0  0  0  0  0  0  0
   -0.7500    3.8971    0.0000 S   0  0  0  0  0  0  0  0  0  0  0  0
   -2.0490    4.6471    0.0000 O   0  0  0  0  0  0  0  0  0  0  0  0
    0.5490    3.1471    0.0000 O   0  0  0  0  0  0  0  0  0  0  0  0
    0.0000    5.1962    0.0000 N   0  0  0  0  0  0  0  0  0  0  0  0
   -0.6101    6.5665    0.0000 C   0  0  0  0  0  0  0  0  0  0  0  0
    0.5046    7.5702    0.0000 C   0  0  0  0  0  0  0  0  0  0  0  0
    1.8037    6.8202    0.0000 C   0  0  0  0  0  0  0  0  0  0  0  0
    1.4918    5.3529    0.0000 C   0  0  0  0  0  0  0  0  0  0  0  0
   -1.5000    0.0000    0.0000 C   0  0  0  0  0  0  0  0  0  0  0  0
   -0.7500   -1.2990    0.0000 C   0  0  0  0  0  0  0  0  0  0  0  0
    6.7008    2.2500    0.0000 O   0  0  0  0  0  0  0  0  0  0  0  0
    6.7008    0.7500    0.0000 C   0  0  0  0  0  0  0  0  0  0  0  0
    5.4017    0.0000    0.0000 C   0  0  0  0  0  0  0  0  0  0  0  0
    4.1027    0.7500    0.0000 C   0  0  0  0  0  0  0  0  0  0  0  0
    4.1027    2.2500    0.0000 O   0  0  0  0  0  0  0  0  0  0  0  0
    2.8037    0.0000    0.0000 O   0  0  0  0  0  0  0  0  0  0  0  0
    7.9998   -0.0000    0.0000 C   0  0  0  0  0  0  0  0  0  0  0  0
    7.9998   -1.5000    0.0000 O   0  0  0  0  0  0  0  0  0  0  0  0
    9.2988    0.7500    0.0000 O   0  0  0  0  0  0  0  0  0  0  0  0
  1  2  1  0
  2  3  1  0
  2  4  1  0
  4  5  1  0
  5  6  1  0
  6  7  2  0
  7  8  1  0
  8  9  1  0
  9 10  2  0
 10 11  1  0
 11 12  2  0
 12 13  1  0
 13 14  1  0
 14 15  2  0
 14 16  2  0
 14 17  1  0
 17 18  1  0
 18 19  1  0
 19 20  1  0
 20 21  1  0
 12 22  1  0
 22 23  2  0
 24 25  1  0
 25 26  1  0
 26 27  1  0
 27 28  2  0
 27 29  1  0
 25 30  1  0
 30 31  2  0
 30 32  1  0
 23  6  1  0
 23  9  1  0
 21 17  1  0
M  END
$$$$
196215
     RDKit          2D

 21 23  0  0  0  0  0  0  0  0999 V2000
   -4.6904   -6.5871    0.0000 C   0  0  0  0  0  0  0  0  0  0  0  0
   -4.3786   -5.1199    0.0000 N   0  0  0  0  0  0  0  0  0  0  0  0
   -5.4933   -4.1162    0.0000 C   0  0  0  0  0  0  0  0  0  0  0  0
   -2.9520   -4.6564    0.0000 C   0  0  0  0  0  0  0  0  0  0  0  0
   -2.6401   -3.1891    0.0000 C   0  0  0  0  0  0  0  0  0  0  0  0
   -1.2135   -2.7256    0.0000 C   0  0  0  0  0  0  0  0  0  0  0  0
   -0.0000   -3.6073    0.0000 C   0  0  0  0  0  0  0  0  0  0  0  0
    1.2135   -2.7256    0.0000 N   0  0  0  0  0  0  0  0  0  0  0  0
    0.7500   -1.2990    0.0000 C   0  0  0  0  0  0  0  0  0  0  0  0
    1.5000    0.0000    0.0000 C   0  0  0  0  0  0  0  0  0  0  0  0
    0.7500    1.2990    0.0000 C   0  0  0  0  0  0  0  0  0  0  0  0
   -0.7500    1.2990    0.0000 C   0  0  0  0  0  0  0  0  0  0  0  0
   -1.5000    2.5981    0.0000 C   0  0  0  0  0  0  0  0  0  0  0  0
   -0.7500    3.8971    0.0000 C   0  0  0  0  0  0  0  0  0  0  0  0
   -1.3601    5.2674    0.0000 C   0  0  0  0  0  0  0  0  0  0  0  0
   -0.2454    6.2711    0.0000 O   0  0  0  0  0  0  0  0  0  0  0  0
    1.0537    5.5211    0.0000 C   0  0  0  0  0  0  0  0  0  0  0  0
    2.4240    6.1312    0.0000 O   0  0  0  0  0  0  0  0  0  0  0  0
    0.7418    4.0539    0.0000 N   0  0  0  0  0  0  0  0  0  0  0  0
   -1.5000    0.0000    0.0000 C   0  0  0  0  0  0  0  0  0  0  0  0
   -0.7500   -1.2990    0.0000 C   0  0  0  0  0  0  0  0  0  0  0  0
  1  2  1  0
  2  3  1  0
  2  4  1  0
  4  5  1  0
  5  6  1  0
  6  7  2  0
  7  8  1  0
  8  9  1  0
  9 10  2  0
 10 11  1  0
 11 12  2  0
 12 13  1  0
 14 13  1  1
 14 15  1  0
 15 16  1  0
 16 17  1  0
 17 18  2  0
 17 19  1  0
 12 20  1  0
 20 21  2  0
 21  6  1  0
 21  9  1  0
 19 14  1  0
M  END
$$$$
28119
     RDKit          2D

 21 23  0  0  0  0  0  0  0  0999 V2000
    8.1129   -3.6696    0.0000 C   0  0  0  0  0  0  0  0  0  0  0  0
    6.6505   -4.0034    0.0000 N   0  0  0  0  0  0  0  0  0  0  0  0
    6.2084   -5.4367    0.0000 C   0  0  0  0  0  0  0  0  0  0  0  0
    5.6303   -2.9038    0.0000 C   0  0  0  0  0  0  0  0  0  0  0  0
    4.1679   -3.2376    0.0000 C   0  0  0  0  0  0  0  0  0  0  0  0
    3.1476   -2.1380    0.0000 C   0  0  0  0  0  0  0  0  0  0  0  0
    1.6852   -2.4718    0.0000 C   0  0  0  0  0  0  0  0  0  0  0  0
    0.7500   -1.2990    0.0000 C   0  0  0  0  0  0  0  0  0  0  0  0
    1.5000    0.0000    0.0000 C   0  0  0  0  0  0  0  0  0  0  0  0
    0.7500    1.2990    0.0000 C   0  0  0  0  0  0  0  0  0  0  0  0
   -0.7500    1.2990    0.0000 C   0  0  0  0  0  0  0  0  0  0  0  0
   -1.5000    0.0000    0.0000 C   0  0  0  0  0  0  0  0  0  0  0  0
   -0.7500   -1.2990    0.0000 C   0  0  0  0  0  0  0  0  0  0  0  0
   -1.6852   -2.4718    0.0000 C   0  0  0  0  0  0  0  0  0  0  0  0
   -1.3515   -3.9342    0.0000 C   0  0  0  0  0  0  0  0  0  0  0  0
   -0.0000   -4.5850    0.0000 C   0  0  0  0  0  0  0  0  0  0  0  0
   -0.1121   -6.0808    0.0000 C   0  0  0  0  0  0  0  0  0  0  0  0
    1.1273   -6.9258    0.0000 C   0  0  0  0  0  0  0  0  0  0  0  0
    2.4787   -6.2750    0.0000 C   0  0  0  0  0  0  0  0  0  0  0  0
    2.5908   -4.7792    0.0000 C   0  0  0  0  0  0  0  0  0  0  0  0
    1.3515   -3.9342    0.0000 C   0  0  0  0  0  0  0  0  0  0  0  0
  1  2  1  0
  2  3  1  0
  2  4  1  0
  4  5  1  0
  5  6  1  0
  6  7  2  0
  7  8  1  0
  8  9  2  0
  9 10  1  0
 10 11  2  0
 11 12  1  0
 12 13  2  0
 13 14  1  0
 14 15  2  0
 15 16  1  0
 16 17  2  0
 17 18  1  0
 18 19  2  0
 19 20  1  0
 20 21  2  0
 21  7  1  0
 13  8  1  0
 21 16  1  0
M  END
$$$$
27072
     RDKit          2D

 21 23  0  0  0  0  0  0  0  0999 V2000
    8.1129   -3.6696    0.0000 C   0  0  0  0  0  0  0  0  0  0  0  0
    6.6505   -4.0034    0.0000 N   0  0  0  0  0  0  0  0  0  0  0  0
    6.2084   -5.4367    0.0000 C   0  0  0  0  0  0  0  0  0  0  0  0
    5.6303   -2.9038    0.0000 C   0  0  0  0  0  0  0  0  0  0  0  0
    4.1679   -3.2376    0.0000 C   0  0  0  0  0  0  0  0  0  0  0  0
    3.1476   -2.1380    0.0000 C   0  0  0  0  0  0  0  0  0  0  0  0
    1.6852   -2.4718    0.0000 C   0  0  0  0  0  0  0  0  0  0  0  0
    0.7500   -1.2990    0.0000 C   0  0  0  0  0  0  0  0  0  0  0  0
    1.5000    0.0000    0.0000 C   0  0  0  0  0  0  0  0  0  0  0  0
    0.7500    1.2990    0.0000 C   0  0  0  0  0  0  0  0  0  0  0  0
   -0.7500    1.2990    0.0000 C   0  0  0  0  0  0  0  0  0  0  0  0
   -1.5000    0.0000    0.0000 C   0  0  0  0  0  0  0  0  0  0  0  0
   -0.7500   -1.2990    0.0000 C   0  0  0  0  0  0  0  0  0  0  0  0
   -1.6852   -2.4718    0.0000 C   0  0  0  0  0  0  0  0  0  0  0  0
   -1.3515   -3.9342    0.0000 C   0  0  0  0  0  0  0  0  0  0  0  0
   -0.0000   -4.5850    0.0000 C   0  0  0  0  0  0  0  0  0  0  0  0
   -0.1121   -6.0808    0.0000 C   0  0  0  0  0  0  0  0  0  0  0  0
    1.1273   -6.9258    0.0000 C   0  0  0  0  0  0  0  0  0  0  0  0
    2.4787   -6.2750    0.0000 C   0  0  0  0  0  0  0  0  0  0  0  0
    2.5908   -4.7792    0.0000 C   0  0  0  0  0  0  0  0  0  0  0  0
    1.3515   -3.9342    0.0000 C   0  0  0  0  0  0  0  0  0  0  0  0
  1  2  1  0
  2  3  1  0
  2  4  1  0
  4  5  1  0
  5  6  1  0
  6  7  2  0
  7  8  1  0
  8  9  2  0
  9 10  1  0
 10 11  2  0
 11 12  1  0
 12 13  2  0
 13 14  1  0
 14 15  1  0
 15 16  1  0
 16 17  2  0
 17 18  1  0
 18 19  2  0
 19 20  1  0
 20 21  2  0
 21  7  1  0
 13  8  1  0
 21 16  1  0
M  END
$$$$
1051118
     RDKit          2D

 21 23  0  0  0  0  0  0  0  0999 V2000
    8.1129   -3.6696    0.0000 C   0  0  0  0  0  0  0  0  0  0  0  0
    6.6505   -4.0034    0.0000 N   0  0  0  0  0  0  0  0  0  0  0  0
    6.2084   -5.4367    0.0000 C   0  0  0  0  0  0  0  0  0  0  0  0
    5.6303   -2.9038    0.0000 C   0  0  0  0  0  0  0  0  0  0  0  0
    4.1679   -3.2376    0.0000 C   0  0  0  0  0  0  0  0  0  0  0  0
    3.1476   -2.1380    0.0000 C   0  0  0  0  0  0  0  0  0  0  0  0
    1.6852   -2.4718    0.0000 C   0  0  0  0  0  0  0  0  0  0  0  0
    0.7500   -1.2990    0.0000 C   0  0  0  0  0  0  0  0  0  0  0  0
    1.5000    0.0000    0.0000 C   0  0  0  0  0  0  0  0  0  0  0  0
    0.7500    1.2990    0.0000 C   0  0  0  0  0  0  0  0  0  0  0  0
   -0.7500    1.2990    0.0000 C   0  0  0  0  0  0  0  0  0  0  0  0
   -1.5000    0.0000    0.0000 C   0  0  0  0  0  0  0  0  0  0  0  0
   -0.7500   -1.2990    0.0000 C   0  0  0  0  0  0  0  0  0  0  0  0
   -1.6852   -2.4718    0.0000 C   0  0  0  0  0  0  0  0  0  0  0  0
   -1.3515   -3.9342    0.0000 O   0  0  0  0  0  0  0  0  0  0  0  0
   -0.0000   -4.5850    0.0000 C   0  0  0  0  0  0  0  0  0  0  0  0
   -0.1121   -6.0808    0.0000 C   0  0  0  0  0  0  0  0  0  0  0  0
    1.1273   -6.9258    0.0000 C   0  0  0  0  0  0  0  0  0  0  0  0
    2.4787   -6.2750    0.0000 C   0  0  0  0  0  0  0  0  0  0  0  0
    2.5908   -4.7792    0.0000 C   0  0  0  0  0  0  0  0  0  0  0  0
    1.3515   -3.9342    0.0000 C   0  0  0  0  0  0  0  0  0  0  0  0
  1  2  1  0
  2  3  1  0
  2  4  1  0
  4  5  1  0
  5  6  1  0
  6  7  2  3
  7  8  1  0
  8  9  2  0
  9 10  1  0
 10 11  2  0
 11 12  1  0
 12 13  2  0
 13 14  1  0
 14 15  1  0
 15 16  1  0
 16 17  2  0
 17 18  1  0
 18 19  2  0
 19 20  1  0
 20 21  2  0
 21  7  1  0
 13  8  1  0
 21 16  1  0
M  END
$$$$
14367
     RDKit          2D

 24 26  0  0  0  0  0  0  0  0999 V2000
   -7.7515   -2.6587    0.0000 C   0  0  0  0  0  0  0  0  0  0  0  0
   -6.3812   -3.2688    0.0000 N   0  0  0  0  0  0  0  0  0  0  0  0
   -6.2244   -4.7606    0.0000 C   0  0  0  0  0  0  0  0  0  0  0  0
   -5.1677   -2.3871    0.0000 C   0  0  0  0  0  0  0  0  0  0  0  0
   -3.7974   -2.9972    0.0000 C   0  0  0  0  0  0  0  0  0  0  0  0
   -2.5838   -2.1155    0.0000 C   0  0  0  0  0  0  0  0  0  0  0  0
   -1.2135   -2.7256    0.0000 C   0  0  0  0  0  0  0  0  0  0  0  0
   -0.0000   -3.6073    0.0000 O   0  0  0  0  0  0  0  0  0  0  0  0
    1.2135   -2.7256    0.0000 C   0  0  0  0  0  0  0  0  0  0  0  0
    0.7500   -1.2990    0.0000 C   0  0  0  0  0  0  0  0  0  0  0  0
    1.5000    0.0000    0.0000 C   0  0  0  0  0  0  0  0  0  0  0  0
    0.7500    1.2990    0.0000 C   0  0  0  0  0  0  0  0  0  0  0  0
   -0.7500    1.2990    0.0000 C   0  0  0  0  0  0  0  0  0  0  0  0
   -1.5000    0.0000    0.0000 C   0  0  0  0  0  0  0  0  0  0  0  0
   -0.7500   -1.2990    0.0000 C   0  0  0  0  0  0  0  0  0  0  0  0
    1.5000    2.5981    0.0000 C   0  0  0  0  0  0  0  0  0  0  0  0
    2.2500    3.8971    0.0000 N   0  0  0  0  0  0  0  0  0  0  0  0
   -1.9635   -4.0247    0.0000 C   0  0  0  0  0  0  0  0  0  0  0  0
   -3.4635   -4.0247    0.0000 C   0  0  0  0  0  0  0  0  0  0  0  0
   -4.2135   -5.3237    0.0000 C   0  0  0  0  0  0  0  0  0  0  0  0
   -3.4635   -6.6227    0.0000 C   0  0  0  0  0  0  0  0  0  0  0  0
   -4.2135   -7.9218    0.0000 F   0  0  0  0  0  0  0  0  0  0  0  0
   -1.9635   -6.6227    0.0000 C   0  0  0  0  0  0  0  0  0  0  0  0
   -1.2135   -5.3237    0.0000 C   0  0  0  0  0  0  0  0  0  0  0  0
  1  2  1  0
  2  3  1  0
  2  4  1  0
  4  5  1  0
  5  6  1  0
  6  7  1  0
  7  8  1  0
  8  9  1  0
  9 10  1  0
 10 11  2  0
 11 12  1  0
 12 13  2  0
 13 14  1  0
 14 15  2  0
 12 16  1  0
 16 17  3  0
  7 18  1  0
 18 19  2  0
 19 20  1  0
 20 21  2  0
 21 22  1  0
 21 23  1  0
 23 24  2  0
 15  7  1  0
 15 10  1  0
 24 18  1  0
M  END
$$$$
996
     RDKit          2D

 22 24  0  0  0  0  0  0  0  0999 V2000
    8.1129   -3.6696    0.0000 C   0  0  0  0  0  0  0  0  0  0  0  0
    6.6505   -4.0034    0.0000 N   0  0  0  0  0  0  0  0  0  0  0  0
    6.2084   -5.4367    0.0000 C   0  0  0  0  0  0  0  0  0  0  0  0
    5.6303   -2.9038    0.0000 C   0  0  0  0  0  0  0  0  0  0  0  0
    4.1679   -3.2376    0.0000 C   0  0  0  0  0  0  0  0  0  0  0  0
    3.1476   -2.1380    0.0000 C   0  0  0  0  0  0  0  0  0  0  0  0
    1.6852   -2.4718    0.0000 N   0  0  0  0  0  0  0  0  0  0  0  0
    0.7500   -1.2990    0.0000 C   0  0  0  0  0  0  0  0  0  0  0  0
    1.5000    0.0000    0.0000 C   0  0  0  0  0  0  0  0  0  0  0  0
    0.7500    1.2990    0.0000 C   0  0  0  0  0  0  0  0  0  0  0  0
   -0.7500    1.2990    0.0000 C   0  0  0  0  0  0  0  0  0  0  0  0
   -1.5000    0.0000    0.0000 C   0  0  0  0  0  0  0  0  0  0  0  0
   -0.7500   -1.2990    0.0000 C   0  0  0  0  0  0  0  0  0  0  0  0
   -1.6852   -2.4718    0.0000 C   0  0  0  0  0  0  0  0  0  0  0  0
   -1.3515   -3.9342    0.0000 C   0  0  0  0  0  0  0  0  0  0  0  0
   -0.0000   -4.5850    0.0000 C   0  0  0  0  0  0  0  0  0  0  0  0
   -0.1121   -6.0808    0.0000 C   0  0  0  0  0  0  0  0  0  0  0  0
    1.1273   -6.9258    0.0000 C   0  0  0  0  0  0  0  0  0  0  0  0
    2.4787   -6.2750    0.0000 C   0  0  0  0  0  0  0  0  0  0  0  0
    3.7181   -7.1199    0.0000 Cl  0  0  0  0  0  0  0  0  0  0  0  0
    2.5908   -4.7792    0.0000 C   0  0  0  0  0  0  0  0  0  0  0  0
    1.3515   -3.9342    0.0000 C   0  0  0  0  0  0  0  0  0  0  0  0
  1  2  1  0
  2  3  1  0
  2  4  1  0
  4  5  1  0
  5  6  1  0
  6  7  1  0
  7  8  1  0
  8  9  2  0
  9 10  1  0
 10 11  2  0
 11 12  1  0
 12 13  2  0
 13 14  1  0
 14 15  1  0
 15 16  1  0
 16 17  2  0
 17 18  1  0
 18 19  2  0
 19 20  1  0
 19 21  1  0
 21 22  2  0
 22  7  1  0
 13  8  1  0
 22 16  1  0
M  END
$$$$
605
     RDKit          2D

 21 23  0  0  0  0  0  0  0  0999 V2000
    8.1129   -3.6696    0.0000 C   0  0  0  0  0  0  0  0  0  0  0  0
    6.6505   -4.0034    0.0000 N   0  0  0  0  0  0  0  0  0  0  0  0
    6.2084   -5.4367    0.0000 C   0  0  0  0  0  0  0  0  0  0  0  0
    5.6303   -2.9038    0.0000 C   0  0  0  0  0  0  0  0  0  0  0  0
    4.1679   -3.2376    0.0000 C   0  0  0  0  0  0  0  0  0  0  0  0
    3.1476   -2.1380    0.0000 C   0  0  0  0  0  0  0  0  0  0  0  0
    1.6852   -2.4718    0.0000 N   0  0  0  0  0  0  0  0  0  0  0  0
    0.7500   -1.2990    0.0000 C   0  0  0  0  0  0  0  0  0  0  0  0
    1.5000    0.0000    0.0000 C   0  0  0  0  0  0  0  0  0  0  0  0
    0.7500    1.2990    0.0000 C   0  0  0  0  0  0  0  0  0  0  0  0
   -0.7500    1.2990    0.0000 C   0  0  0  0  0  0  0  0  0  0  0  0
   -1.5000    0.0000    0.0000 C   0  0  0  0  0  0  0  0  0  0  0  0
   -0.7500   -1.2990    0.0000 C   0  0  0  0  0  0  0  0  0  0  0  0
   -1.6852   -2.4718    0.0000 C   0  0  0  0  0  0  0  0  0  0  0  0
   -1.3515   -3.9342    0.0000 C   0  0  0  0  0  0  0  0  0  0  0  0
   -0.0000   -4.5850    0.0000 C   0  0  0  0  0  0  0  0  0  0  0  0
   -0.1121   -6.0808    0.0000 C   0  0  0  0  0  0  0  0  0  0  0  0
    1.1273   -6.9258    0.0000 C   0  0  0  0  0  0  0  0  0  0  0  0
    2.4787   -6.2750    0.0000 C   0  0  0  0  0  0  0  0  0  0  0  0
    2.5908   -4.7792    0.0000 C   0  0  0  0  0  0  0  0  0  0  0  0
    1.3515   -3.9342    0.0000 C   0  0  0  0  0  0  0  0  0  0  0  0
  1  2  1  0
  2  3  1  0
  2  4  1  0
  4  5  1  0
  5  6  1  0
  6  7  1  0
  7  8  1  0
  8  9  2  0
  9 10  1  0
 10 11  2  0
 11 12  1  0
 12 13  2  0
 13 14  1  0
 14 15  1  0
 15 16  1  0
 16 17  2  0
 17 18  1  0
 18 19  2  0
 19 20  1  0
 20 21  2  0
 21  7  1  0
 13  8  1  0
 21 16  1  0
M  END
$$$$
674582
     RDKit          2D

 50 55  0  0  0  0  0  0  0  0999 V2000
    8.1129   -3.6696    0.0000 C   0  0  0  0  0  0  0  0  0  0  0  0
    6.6505   -4.0034    0.0000 N   0  0  0  0  0  0  0  0  0  0  0  0
    6.2084   -5.4367    0.0000 C   0  0  0  0  0  0  0  0  0  0  0  0
    5.6303   -2.9038    0.0000 C   0  0  0  0  0  0  0  0  0  0  0  0
    4.1679   -3.2376    0.0000 C   0  0  0  0  0  0  0  0  0  0  0  0
    3.1476   -2.1380    0.0000 C   0  0  0  0  0  0  0  0  0  0  0  0
    1.6852   -2.4718    0.0000 N   0  0  0  0  0  0  0  0  0  0  0  0
    0.7500   -1.2990    0.0000 C   0  0  0  0  0  0  0  0  0  0  0  0
    1.5000    0.0000    0.0000 C   0  0  0  0  0  0  0  0  0  0  0  0
    0.7500    1.2990    0.0000 C   0  0  0  0  0  0  0  0  0  0  0  0
   -0.7500    1.2990    0.0000 C   0  0  0  0  0  0  0  0  0  0  0  0
   -1.5000    0.0000    0.0000 C   0  0  0  0  0  0  0  0  0  0  0  0
   -0.7500   -1.2990    0.0000 C   0  0  0  0  0  0  0  0  0  0  0  0
   -1.6852   -2.4718    0.0000 C   0  0  0  0  0  0  0  0  0  0  0  0
   -1.3515   -3.9342    0.0000 C   0  0  0  0  0  0  0  0  0  0  0  0
   -0.0000   -4.5850    0.0000 C   0  0  0  0  0  0  0  0  0  0  0  0
   -0.1121   -6.0808    0.0000 C   0  0  0  0  0  0  0  0  0  0  0  0
    1.1273   -6.9258    0.0000 C   0  0  0  0  0  0  0  0  0  0  0  0
    2.4787   -6.2750    0.0000 C   0  0  0  0  0  0  0  0  0  0  0  0
    2.5908   -4.7792    0.0000 C   0  0  0  0  0  0  0  0  0  0  0  0
    1.3515   -3.9342    0.0000 C   0  0  0  0  0  0  0  0  0  0  0  0
    0.7500    4.8971    0.0000 O   0  0  0  0  0  0  0  0  0  0  0  0
    1.5000    6.1962    0.0000 C   0  0  0  0  0  0  0  0  0  0  0  0
    3.0000    6.1962    0.0000 O   0  0  0  0  0  0  0  0  0  0  0  0
    0.7500    7.4952    0.0000 C   0  0  0  0  0  0  0  0  0  0  0  0
    1.5000    8.7942    0.0000 C   0  0  0  0  0  0  0  0  0  0  0  0
    0.7500   10.0933    0.0000 C   0  0  0  0  0  0  0  0  0  0  0  0
    1.5000   11.3923    0.0000 C   0  0  0  0  0  0  0  0  0  0  0  0
    0.7500   12.6913    0.0000 C   0  0  0  0  0  0  0  0  0  0  0  0
   -0.7500   12.6913    0.0000 C   0  0  0  0  0  0  0  0  0  0  0  0
   -1.5000   11.3923    0.0000 C   0  0  0  0  0  0  0  0  0  0  0  0
   -0.7500   10.0933    0.0000 C   0  0  0  0  0  0  0  0  0  0  0  0
   -1.5000    8.7942    0.0000 C   0  0  0  0  0  0  0  0  0  0  0  0
   -3.0000    8.7942    0.0000 C   0  0  0  0  0  0  0  0  0  0  0  0
   -3.7500    7.4952    0.0000 C   0  0  0  0  0  0  0  0  0  0  0  0
   -3.0000    6.1962    0.0000 C   0  0  0  0  0  0  0  0  0  0  0  0
   -2.0232    6.0762    0.0000 O   0  0  0  0  0  0  0  0  0  0  0  0
   -3.7500    4.8971    0.0000 C   0  0  0  0  0  0  0  0  0  0  0  0
   -5.2500    4.8971    0.0000 C   0  0  0  0  0  0  0  0  0  0  0  0
   -6.0000    6.1962    0.0000 C   0  0  0  0  0  0  0  0  0  0  0  0
   -7.5000    6.1962    0.0000 C   0  0  0  0  0  0  0  0  0  0  0  0
   -8.2500    7.4952    0.0000 C   0  0  0  0  0  0  0  0  0  0  0  0
   -7.5000    8.7942    0.0000 C   0  0  0  0  0  0  0  0  0  0  0  0
   -6.0000    8.7942    0.0000 C   0  0  0  0  0  0  0  0  0  0  0  0
   -5.2500    7.4952    0.0000 C   0  0  0  0  0  0  0  0  0  0  0  0
   -3.0000    3.5981    0.0000 C   0  0  0  0  0  0  0  0  0  0  0  0
   -1.5000    3.5981    0.0000 O   0  0  0  0  0  0  0  0  0  0  0  0
   -3.7500    2.2990    0.0000 O   0  0  0  0  0  0  0  0  0  0  0  0
   -0.7500    7.4952    0.0000 C   0  0  0  0  0  0  0  0  0  0  0  0
   -1.1345    6.5893    0.0000 O   0  0  0  0  0  0  0  0  0  0  0  0
  1  2  1  0
  2  3  1  0
  2  4  1  0
  4  5  1  0
  5  6  1  0
  6  7  1  0
  7  8  1  0
  8  9  2  0
  9 10  1  0
 10 11  2  0
 11 12  1  0
 12 13  2  0
 13 14  1  0
 14 15  1  0
 15 16  1  0
 16 17  2  0
 17 18  1  0
 18 19  2  0
 19 20  1  0
 20 21  2  0
 22 23  1  0
 23 24  2  0
 23 25  1  0
 25 26  2  0
 26 27  1  0
 27 28  2  0
 28 29  1  0
 29 30  2  0
 30 31  1  0
 31 32  2  0
 32 33  1  0
 33 34  1  0
 34 35  1  0
 35 36  2  0
 36 37  1  0
 36 38  1  0
 38 39  2  0
 39 40  1  0
 40 41  2  0
 41 42  1  0
 42 43  2  0
 43 44  1  0
 44 45  2  0
 38 46  1  0
 46 47  2  0
 46 48  1  0
 33 49  2  0
 49 50  1  0
 21  7  1  0
 13  8  1  0
 21 16  1  0
 49 25  1  0
 32 27  1  0
 45 35  1  0
 45 40  1  0
M  END
$$$$
16584
     RDKit          2D

 24 26  0  0  0  0  0  0  0  0999 V2000
    7.5000   -5.1962    0.0000 C   0  0  0  0  0  0  0  0  0  0  0  0
    6.0000   -5.1962    0.0000 N   0  0  0  0  0  0  0  0  0  0  0  0
    5.2500   -6.4952    0.0000 C   0  0  0  0  0  0  0  0  0  0  0  0
    5.2500   -3.8971    0.0000 C   0  0  0  0  0  0  0  0  0  0  0  0
    3.7500   -3.8971    0.0000 C   0  0  0  0  0  0  0  0  0  0  0  0
    3.0000   -2.5981    0.0000 C   0  0  0  0  0  0  0  0  0  0  0  0
    1.5000   -2.5981    0.0000 N   0  0  0  0  0  0  0  0  0  0  0  0
    0.7500   -1.2990    0.0000 C   0  0  0  0  0  0  0  0  0  0  0  0
    1.5000    0.0000    0.0000 C   0  0  0  0  0  0  0  0  0  0  0  0
    0.7500    1.2990    0.0000 C   0  0  0  0  0  0  0  0  0  0  0  0
   -0.7500    1.2990    0.0000 C   0  0  0  0  0  0  0  0  0  0  0  0
   -1.5000    0.0000    0.0000 C   0  0  0  0  0  0  0  0  0  0  0  0
   -0.7500   -1.2990    0.0000 C   0  0  0  0  0  0  0  0  0  0  0  0
   -1.5000   -2.5981    0.0000 S   0  0  0  0  0  0  0  0  0  0  0  0
   -0.7500   -3.8971    0.0000 C   0  0  0  0  0  0  0  0  0  0  0  0
   -1.5000   -5.1962    0.0000 C   0  0  0  0  0  0  0  0  0  0  0  0
   -0.7500   -6.4952    0.0000 C   0  0  0  0  0  0  0  0  0  0  0  0
    0.7500   -6.4952    0.0000 C   0  0  0  0  0  0  0  0  0  0  0  0
    1.5000   -5.1962    0.0000 C   0  0  0  0  0  0  0  0  0  0  0  0
    0.7500   -3.8971    0.0000 C   0  0  0  0  0  0  0  0  0  0  0  0
    1.5000   -7.7942    0.0000 C   0  0  0  0  0  0  0  0  0  0  0  0
    2.2500   -9.0933    0.0000 F   0  0  0  0  0  0  0  0  0  0  0  0
    0.2010   -8.5442    0.0000 F   0  0  0  0  0  0  0  0  0  0  0  0
    2.7990   -7.0442    0.0000 F   0  0  0  0  0  0  0  0  0  0  0  0
  1  2  1  0
  2  3  1  0
  2  4  1  0
  4  5  1  0
  5  6  1  0
  6  7  1  0
  7  8  1  0
  8  9  2  0
  9 10  1  0
 10 11  2  0
 11 12  1  0
 12 13  2  0
 13 14  1  0
 14 15  1  0
 15 16  2  0
 16 17  1  0
 17 18  2  0
 18 19  1  0
 19 20  2  0
 18 21  1  0
 21 22  1  0
 21 23  1  0
 21 24  1  0
 20  7  1  0
 13  8  1  0
 20 15  1  0
M  END
$$$$
6216
     RDKit          2D

 21 23  0  0  0  0  0  0  0  0999 V2000
    7.5000   -5.1962    0.0000 C   0  0  0  0  0  0  0  0  0  0  0  0
    6.0000   -5.1962    0.0000 N   0  0  0  0  0  0  0  0  0  0  0  0
    5.2500   -6.4952    0.0000 C   0  0  0  0  0  0  0  0  0  0  0  0
    5.2500   -3.8971    0.0000 C   0  0  0  0  0  0  0  0  0  0  0  0
    3.7500   -3.8971    0.0000 C   0  0  0  0  0  0  0  0  0  0  0  0
    3.0000   -2.5981    0.0000 C   0  0  0  0  0  0  0  0  0  0  0  0
    1.5000   -2.5981    0.0000 N   0  0  0  0  0  0  0  0  0  0  0  0
    0.7500   -1.2990    0.0000 C   0  0  0  0  0  0  0  0  0  0  0  0
    1.5000    0.0000    0.0000 C   0  0  0  0  0  0  0  0  0  0  0  0
    0.7500    1.2990    0.0000 C   0  0  0  0  0  0  0  0  0  0  0  0
   -0.7500    1.2990    0.0000 C   0  0  0  0  0  0  0  0  0  0  0  0
   -1.5000    0.0000    0.0000 C   0  0  0  0  0  0  0  0  0  0  0  0
   -0.7500   -1.2990    0.0000 C   0  0  0  0  0  0  0  0  0  0  0  0
   -1.5000   -2.5981    0.0000 S   0  0  0  0  0  0  0  0  0  0  0  0
   -0.7500   -3.8971    0.0000 C   0  0  0  0  0  0  0  0  0  0  0  0
   -1.5000   -5.1962    0.0000 C   0  0  0  0  0  0  0  0  0  0  0  0
   -0.7500   -6.4952    0.0000 C   0  0  0  0  0  0  0  0  0  0  0  0
    0.7500   -6.4952    0.0000 C   0  0  0  0  0  0  0  0  0  0  0  0
    1.5000   -7.7942    0.0000 Cl  0  0  0  0  0  0  0  0  0  0  0  0
    1.5000   -5.1962    0.0000 C   0  0  0  0  0  0  0  0  0  0  0  0
    0.7500   -3.8971    0.0000 C   0  0  0  0  0  0  0  0  0  0  0  0
  1  2  1  0
  2  3  1  0
  2  4  1  0
  4  5  1  0
  5  6  1  0
  6  7  1  0
  7  8  1  0
  8  9  2  0
  9 10  1  0
 10 11  2  0
 11 12  1  0
 12 13  2  0
 13 14  1  0
 14 15  1  0
 15 16  2  0
 16 17  1  0
 17 18  2  0
 18 19  1  0
 18 20  1  0
 20 21  2  0
 21  7  1  0
 13  8  1  0
 21 15  1  0
M  END
$$$$
16391
     RDKit          2D

 20 22  0  0  0  0  0  0  0  0999 V2000
    7.5000   -5.1962    0.0000 C   0  0  0  0  0  0  0  0  0  0  0  0
    6.0000   -5.1962    0.0000 N   0  0  0  0  0  0  0  0  0  0  0  0
    5.2500   -6.4952    0.0000 C   0  0  0  0  0  0  0  0  0  0  0  0
    5.2500   -3.8971    0.0000 C   0  0  0  0  0  0  0  0  0  0  0  0
    3.7500   -3.8971    0.0000 C   0  0  0  0  0  0  0  0  0  0  0  0
    3.0000   -2.5981    0.0000 C   0  0  0  0  0  0  0  0  0  0  0  0
    1.5000   -2.5981    0.0000 N   0  0  0  0  0  0  0  0  0  0  0  0
    0.7500   -1.2990    0.0000 C   0  0  0  0  0  0  0  0  0  0  0  0
    1.5000    0.0000    0.0000 C   0  0  0  0  0  0  0  0  0  0  0  0
    0.7500    1.2990    0.0000 C   0  0  0  0  0  0  0  0  0  0  0  0
   -0.7500    1.2990    0.0000 C   0  0  0  0  0  0  0  0  0  0  0  0
   -1.5000    0.0000    0.0000 C   0  0  0  0  0  0  0  0  0  0  0  0
   -0.7500   -1.2990    0.0000 C   0  0  0  0  0  0  0  0  0  0  0  0
   -1.5000   -2.5981    0.0000 S   0  0  0  0  0  0  0  0  0  0  0  0
   -0.7500   -3.8971    0.0000 C   0  0  0  0  0  0  0  0  0  0  0  0
   -1.5000   -5.1962    0.0000 C   0  0  0  0  0  0  0  0  0  0  0  0
   -0.7500   -6.4952    0.0000 C   0  0  0  0  0  0  0  0  0  0  0  0
    0.7500   -6.4952    0.0000 C   0  0  0  0  0  0  0  0  0  0  0  0
    1.5000   -5.1962    0.0000 C   0  0  0  0  0  0  0  0  0  0  0  0
    0.7500   -3.8971    0.0000 C   0  0  0  0  0  0  0  0  0  0  0  0
  1  2  1  0
  2  3  1  0
  2  4  1  0
  4  5  1  0
  5  6  1  0
  6  7  1  0
  7  8  1  0
  8  9  2  0
  9 10  1  0
 10 11  2  0
 11 12  1  0
 12 13  2  0
 13 14  1  0
 14 15  1  0
 15 16  2  0
 16 17  1  0
 17 18  2  0
 18 19  1  0
 19 20  2  0
 20  7  1  0
 13  8  1  0
 20 15  1  0
M  END
$$$$
421007
     RDKit          2D

 24 26  0  0  0  0  0  0  0  0999 V2000
   -7.7515   -2.6587    0.0000 C   0  0  0  0  0  0  0  0  0  0  0  0
   -6.3812   -3.2688    0.0000 N   0  0  0  0  0  0  0  0  0  0  0  0
   -6.2244   -4.7606    0.0000 C   0  0  0  0  0  0  0  0  0  0  0  0
   -5.1677   -2.3871    0.0000 C   0  0  0  0  0  0  0  0  0  0  0  0
   -3.7974   -2.9972    0.0000 C   0  0  0  0  0  0  0  0  0  0  0  0
   -2.5838   -2.1155    0.0000 C   0  0  0  0  0  0  0  0  0  0  0  0
   -1.2135   -2.7256    0.0000 C   0  0  0  0  0  0  0  0  0  0  0  0
   -0.0000   -3.6073    0.0000 O   0  0  0  0  0  0  0  0  0  0  0  0
    1.2135   -2.7256    0.0000 C   0  0  0  0  0  0  0  0  0  0  0  0
    0.7500   -1.2990    0.0000 C   0  0  0  0  0  0  0  0  0  0  0  0
    1.5000    0.0000    0.0000 C   0  0  0  0  0  0  0  0  0  0  0  0
    0.7500    1.2990    0.0000 C   0  0  0  0  0  0  0  0  0  0  0  0
   -0.7500    1.2990    0.0000 C   0  0  0  0  0  0  0  0  0  0  0  0
   -1.5000    0.0000    0.0000 C   0  0  0  0  0  0  0  0  0  0  0  0
   -0.7500   -1.2990    0.0000 C   0  0  0  0  0  0  0  0  0  0  0  0
    1.5000    2.5981    0.0000 C   0  0  0  0  0  0  0  0  0  0  0  0
    2.2500    3.8971    0.0000 N   0  0  0  0  0  0  0  0  0  0  0  0
   -1.9635   -4.0247    0.0000 C   0  0  0  0  0  0  0  0  0  0  0  0
   -3.4635   -4.0247    0.0000 C   0  0  0  0  0  0  0  0  0  0  0  0
   -4.2135   -5.3237    0.0000 C   0  0  0  0  0  0  0  0  0  0  0  0
   -3.4635   -6.6227    0.0000 C   0  0  0  0  0  0  0  0  0  0  0  0
   -4.2135   -7.9218    0.0000 F   0  0  0  0  0  0  0  0  0  0  0  0
   -1.9635   -6.6227    0.0000 C   0  0  0  0  0  0  0  0  0  0  0  0
   -1.2135   -5.3237    0.0000 C   0  0  0  0  0  0  0  0  0  0  0  0
  1  2  1  0
  2  3  1  0
  2  4  1  0
  4  5  1  0
  5  6  1  0
  7  6  1  6
  7  8  1  0
  8  9  1  0
  9 10  1  0
 10 11  2  0
 11 12  1  0
 12 13  2  0
 13 14  1  0
 14 15  2  0
 12 16  1  0
 16 17  3  0
  7 18  1  0
 18 19  2  0
 19 20  1  0
 20 21  2  0
 21 22  1  0
 21 23  1  0
 23 24  2  0
 15  7  1  0
 15 10  1  0
 24 18  1  0
M  END
$$$$
674273
     RDKit          2D

 30 31  0  0  0  0  0  0  0  0999 V2000
   -7.7515   -2.6587    0.0000 C   0  0  0  0  0  0  0  0  0  0  0  0
   -6.3812   -3.2688    0.0000 N   0  0  0  0  0  0  0  0  0  0  0  0
   -6.2244   -4.7606    0.0000 C   0  0  0  0  0  0  0  0  0  0  0  0
   -5.1677   -2.3871    0.0000 C   0  0  0  0  0  0  0  0  0  0  0  0
   -3.7974   -2.9972    0.0000 C   0  0  0  0  0  0  0  0  0  0  0  0
   -2.5838   -2.1155    0.0000 C   0  0  0  0  0  0  0  0  0  0  0  0
   -1.2135   -2.7256    0.0000 C   0  0  0  0  0  0  0  0  0  0  0  0
   -0.0000   -3.6073    0.0000 O   0  0  0  0  0  0  0  0  0  0  0  0
    1.2135   -2.7256    0.0000 C   0  0  0  0  0  0  0  0  0  0  0  0
    0.7500   -1.2990    0.0000 C   0  0  0  0  0  0  0  0  0  0  0  0
    1.5000    0.0000    0.0000 C   0  0  0  0  0  0  0  0  0  0  0  0
    0.7500    1.2990    0.0000 C   0  0  0  0  0  0  0  0  0  0  0  0
   -0.7500    1.2990    0.0000 C   0  0  0  0  0  0  0  0  0  0  0  0
   -1.5000    0.0000    0.0000 C   0  0  0  0  0  0  0  0  0  0  0  0
   -0.7500   -1.2990    0.0000 C   0  0  0  0  0  0  0  0  0  0  0  0
    1.5000    2.5981    0.0000 C   0  0  0  0  0  0  0  0  0  0  0  0
    2.2500    3.8971    0.0000 N   0  0  0  0  0  0  0  0  0  0  0  0
   -1.9635   -4.0247    0.0000 C   0  0  0  0  0  0  0  0  0  0  0  0
   -3.4635   -4.0247    0.0000 C   0  0  0  0  0  0  0  0  0  0  0  0
   -4.2135   -5.3237    0.0000 C   0  0  0  0  0  0  0  0  0  0  0  0
   -3.4635   -6.6227    0.0000 C   0  0  0  0  0  0  0  0  0  0  0  0
   -4.2135   -7.9218    0.0000 F   0  0  0  0  0  0  0  0  0  0  0  0
   -1.9635   -6.6227    0.0000 C   0  0  0  0  0  0  0  0  0  0  0  0
   -1.2135   -5.3237    0.0000 C   0  0  0  0  0  0  0  0  0  0  0  0
    3.2500    0.7500    0.0000 O   0  0  0  0  0  0  0  0  0  0  0  0
    4.5490    0.0000    0.0000 C   0  0  0  0  0  0  0  0  0  0  0  0
    4.5490   -1.5000    0.0000 O   0  0  0  0  0  0  0  0  0  0  0  0
    5.8481    0.7500    0.0000 C   0  0  0  0  0  0  0  0  0  0  0  0
    5.8481    2.2500    0.0000 O   0  0  0  0  0  0  0  0  0  0  0  0
    7.1471   -0.0000    0.0000 O   0  0  0  0  0  0  0  0  0  0  0  0
  1  2  1  0
  2  3  1  0
  2  4  1  0
  4  5  1  0
  5  6  1  0
  7  6  1  6
  7  8  1  0
  8  9  1  0
  9 10  1  0
 10 11  2  0
 11 12  1  0
 12 13  2  0
 13 14  1  0
 14 15  2  0
 12 16  1  0
 16 17  3  0
  7 18  1  0
 18 19  2  0
 19 20  1  0
 20 21  2  0
 21 22  1  0
 21 23  1  0
 23 24  2  0
 25 26  1  0
 26 27  2  0
 26 28  1  0
 28 29  2  0
 28 30  1  0
 15  7  1  0
 15 10  1  0
 24 18  1  0
M  END
$$$$
231013
     RDKit          2D

 19 20  0  0  0  0  0  0  0  0999 V2000
    0.7500   -9.0933    0.0000 C   0  0  0  0  0  0  0  0  0  0  0  0
    1.5000   -7.7942    0.0000 N   0  0  0  0  0  0  0  0  0  0  0  0
    3.0000   -7.7942    0.0000 C   0  0  0  0  0  0  0  0  0  0  0  0
    0.7500   -6.4952    0.0000 C   0  0  0  0  0  0  0  0  0  0  0  0
    1.5000   -5.1962    0.0000 C   0  0  0  0  0  0  0  0  0  0  0  0
    0.7500   -3.8971    0.0000 N   0  0  0  0  0  0  0  0  0  0  0  0
    1.5000   -2.5981    0.0000 C   0  0  0  0  0  0  0  0  0  0  0  0
    0.7500   -1.2990    0.0000 C   0  0  0  0  0  0  0  0  0  0  0  0
    1.5000    0.0000    0.0000 C   0  0  0  0  0  0  0  0  0  0  0  0
    0.7500    1.2990    0.0000 C   0  0  0  0  0  0  0  0  0  0  0  0
   -0.7500    1.2990    0.0000 C   0  0  0  0  0  0  0  0  0  0  0  0
   -1.5000    0.0000    0.0000 C   0  0  0  0  0  0  0  0  0  0  0  0
   -0.7500   -1.2990    0.0000 C   0  0  0  0  0  0  0  0  0  0  0  0
   -0.7500   -3.8971    0.0000 C   0  0  0  0  0  0  0  0  0  0  0  0
   -1.5000   -2.5981    0.0000 C   0  0  0  0  0  0  0  0  0  0  0  0
   -3.0000   -2.5981    0.0000 C   0  0  0  0  0  0  0  0  0  0  0  0
   -3.7500   -3.8971    0.0000 C   0  0  0  0  0  0  0  0  0  0  0  0
   -3.0000   -5.1962    0.0000 C   0  0  0  0  0  0  0  0  0  0  0  0
   -1.5000   -5.1962    0.0000 N   0  0  0  0  0  0  0  0  0  0  0  0
  1  2  1  0
  2  3  1  0
  2  4  1  0
  4  5  1  0
  5  6  1  0
  6  7  1  0
  7  8  1  0
  8  9  2  0
  9 10  1  0
 10 11  2  0
 11 12  1  0
 12 13  2  0
  6 14  1  0
 14 15  2  0
 15 16  1  0
 16 17  2  0
 17 18  1  0
 18 19  2  0
 13  8  1  0
 19 14  1  0
M  END
$$$$
674720
     RDKit          2D

 32 32  0  0  0  0  0  0  0  0999 V2000
    0.7500   -9.0933    0.0000 C   0  0  0  0  0  0  0  0  0  0  0  0
    1.5000   -7.7942    0.0000 N   0  0  0  0  0  0  0  0  0  0  0  0
    3.0000   -7.7942    0.0000 C   0  0  0  0  0  0  0  0  0  0  0  0
    0.7500   -6.4952    0.0000 C   0  0  0  0  0  0  0  0  0  0  0  0
    1.5000   -5.1962    0.0000 C   0  0  0  0  0  0  0  0  0  0  0  0
    0.7500   -3.8971    0.0000 N   0  0  0  0  0  0  0  0  0  0  0  0
    1.5000   -2.5981    0.0000 C   0  0  0  0  0  0  0  0  0  0  0  0
    0.7500   -1.2990    0.0000 C   0  0  0  0  0  0  0  0  0  0  0  0
    1.5000    0.0000    0.0000 C   0  0  0  0  0  0  0  0  0  0  0  0
    0.7500    1.2990    0.0000 C   0  0  0  0  0  0  0  0  0  0  0  0
   -0.7500    1.2990    0.0000 C   0  0  0  0  0  0  0  0  0  0  0  0
   -1.5000    0.0000    0.0000 C   0  0  0  0  0  0  0  0  0  0  0  0
   -0.7500   -1.2990    0.0000 C   0  0  0  0  0  0  0  0  0  0  0  0
   -0.7500   -3.8971    0.0000 C   0  0  0  0  0  0  0  0  0  0  0  0
   -1.5000   -2.5981    0.0000 C   0  0  0  0  0  0  0  0  0  0  0  0
   -3.0000   -2.5981    0.0000 C   0  0  0  0  0  0  0  0  0  0  0  0
   -3.7500   -3.8971    0.0000 C   0  0  0  0  0  0  0  0  0  0  0  0
   -3.0000   -5.1962    0.0000 C   0  0  0  0  0  0  0  0  0  0  0  0
   -1.5000   -5.1962    0.0000 N   0  0  0  0  0  0  0  0  0  0  0  0
    4.0000    0.0000    0.0000 O   0  0  0  0  0  0  0  0  0  0  0  0
    5.2990    0.7500    0.0000 C   0  0  0  0  0  0  0  0  0  0  0  0
    5.2990    2.2500    0.0000 O   0  0  0  0  0  0  0  0  0  0  0  0
    6.5981    0.0000    0.0000 C   0  0  0  0  0  0  0  0  0  0  0  0
    7.8971    0.7500    0.0000 C   0  0  0  0  0  0  0  0  0  0  0  0
    7.1471    2.0490    0.0000 O   0  0  0  0  0  0  0  0  0  0  0  0
    9.1962    1.5000    0.0000 C   0  0  0  0  0  0  0  0  0  0  0  0
    9.1962    3.0000    0.0000 C   0  0  0  0  0  0  0  0  0  0  0  0
    7.8971    3.7500    0.0000 O   0  0  0  0  0  0  0  0  0  0  0  0
   10.4952    3.7500    0.0000 O   0  0  0  0  0  0  0  0  0  0  0  0
    8.6471   -0.5490    0.0000 C   0  0  0  0  0  0  0  0  0  0  0  0
    7.8971   -1.8481    0.0000 O   0  0  0  0  0  0  0  0  0  0  0  0
   10.1471   -0.5490    0.0000 O   0  0  0  0  0  0  0  0  0  0  0  0
  1  2  1  0
  2  3  1  0
  2  4  1  0
  4  5  1  0
  5  6  1  0
  6  7  1  0
  7  8  1  0
  8  9  2  0
  9 10  1  0
 10 11  2  0
 11 12  1  0
 12 13  2  0
  6 14  1  0
 14 15  2  0
 15 16  1  0
 16 17  2  0
 17 18  1  0
 18 19  2  0
 20 21  1  0
 21 22  2  0
 21 23  1  0
 23 24  1  0
 24 25  1  0
 24 26  1  0
 26 27  1  0
 27 28  2  0
 27 29  1  0
 24 30  1  0
 30 31  2  0
 30 32  1  0
 13  8  1  0
 19 14  1  0
M  END
$$$$
111498
     RDKit          2D

 20 21  0  0  0  0  0  0  0  0999 V2000
   -2.3971   -7.8481    0.0000 C   0  0  0  0  0  0  0  0  0  0  0  0
   -1.0981   -7.0981    0.0000 N   0  0  0  0  0  0  0  0  0  0  0  0
    0.2010   -7.8481    0.0000 C   0  0  0  0  0  0  0  0  0  0  0  0
   -1.0981   -5.5981    0.0000 C   0  0  0  0  0  0  0  0  0  0  0  0
    0.2010   -4.8481    0.0000 C   0  0  0  0  0  0  0  0  0  0  0  0
    0.2010   -3.3481    0.0000 O   0  0  0  0  0  0  0  0  0  0  0  0
    1.5000   -2.5981    0.0000 C   0  0  0  0  0  0  0  0  0  0  0  0
    2.2500   -3.8971    0.0000 C   0  0  0  0  0  0  0  0  0  0  0  0
    0.7500   -1.2990    0.0000 C   0  0  0  0  0  0  0  0  0  0  0  0
    1.5000    0.0000    0.0000 C   0  0  0  0  0  0  0  0  0  0  0  0
    0.7500    1.2990    0.0000 C   0  0  0  0  0  0  0  0  0  0  0  0
   -0.7500    1.2990    0.0000 C   0  0  0  0  0  0  0  0  0  0  0  0
   -1.5000    0.0000    0.0000 C   0  0  0  0  0  0  0  0  0  0  0  0
   -0.7500   -1.2990    0.0000 C   0  0  0  0  0  0  0  0  0  0  0  0
    2.7990   -1.8481    0.0000 C   0  0  0  0  0  0  0  0  0  0  0  0
    4.0981   -2.5981    0.0000 C   0  0  0  0  0  0  0  0  0  0  0  0
    5.3971   -1.8481    0.0000 C   0  0  0  0  0  0  0  0  0  0  0  0
    5.3971   -0.3481    0.0000 C   0  0  0  0  0  0  0  0  0  0  0  0
    4.0981    0.4019    0.0000 C   0  0  0  0  0  0  0  0  0  0  0  0
    2.7990   -0.3481    0.0000 N   0  0  0  0  0  0  0  0  0  0  0  0
  1  2  1  0
  2  3  1  0
  2  4  1  0
  4  5  1  0
  5  6  1  0
  6  7  1  0
  7  8  1  0
  7  9  1  0
  9 10  2  0
 10 11  1  0
 11 12  2  0
 12 13  1  0
 13 14  2  0
  7 15  1  0
 15 16  2  0
 16 17  1  0
 17 18  2  0
 18 19  1  0
 19 20  2  0
 14  9  1  0
 20 15  1  0
M  END
$$$$
674343
     RDKit          2D

 28 28  0  0  0  0  0  0  0  0999 V2000
   -2.3971   -7.8481    0.0000 C   0  0  0  0  0  0  0  0  0  0  0  0
   -1.0981   -7.0981    0.0000 N   0  0  0  0  0  0  0  0  0  0  0  0
    0.2010   -7.8481    0.0000 C   0  0  0  0  0  0  0  0  0  0  0  0
   -1.0981   -5.5981    0.0000 C   0  0  0  0  0  0  0  0  0  0  0  0
    0.2010   -4.8481    0.0000 C   0  0  0  0  0  0  0  0  0  0  0  0
    0.2010   -3.3481    0.0000 O   0  0  0  0  0  0  0  0  0  0  0  0
    1.5000   -2.5981    0.0000 C   0  0  0  0  0  0  0  0  0  0  0  0
    2.2500   -3.8971    0.0000 C   0  0  0  0  0  0  0  0  0  0  0  0
    0.7500   -1.2990    0.0000 C   0  0  0  0  0  0  0  0  0  0  0  0
    1.5000    0.0000    0.0000 C   0  0  0  0  0  0  0  0  0  0  0  0
    0.7500    1.2990    0.0000 C   0  0  0  0  0  0  0  0  0  0  0  0
   -0.7500    1.2990    0.0000 C   0  0  0  0  0  0  0  0  0  0  0  0
   -1.5000    0.0000    0.0000 C   0  0  0  0  0  0  0  0  0  0  0  0
   -0.7500   -1.2990    0.0000 C   0  0  0  0  0  0  0  0  0  0  0  0
    2.7990   -1.8481    0.0000 C   0  0  0  0  0  0  0  0  0  0  0  0
    4.0981   -2.5981    0.0000 C   0  0  0  0  0  0  0  0  0  0  0  0
    5.3971   -1.8481    0.0000 C   0  0  0  0  0  0  0  0  0  0  0  0
    5.3971   -0.3481    0.0000 C   0  0  0  0  0  0  0  0  0  0  0  0
    4.0981    0.4019    0.0000 C   0  0  0  0  0  0  0  0  0  0  0  0
    2.7990   -0.3481    0.0000 N   0  0  0  0  0  0  0  0  0  0  0  0
    6.3971    0.0000    0.0000 O   0  0  0  0  0  0  0  0  0  0  0  0
    7.6962    0.7500    0.0000 C   0  0  0  0  0  0  0  0  0  0  0  0
    7.6962    2.2500    0.0000 O   0  0  0  0  0  0  0  0  0  0  0  0
    8.9952    0.0000    0.0000 C   0  0  0  0  0  0  0  0  0  0  0  0
   10.2942    0.7500    0.0000 C   0  0  0  0  0  0  0  0  0  0  0  0
   11.5933   -0.0000    0.0000 C   0  0  0  0  0  0  0  0  0  0  0  0
   11.5933   -1.5000    0.0000 O   0  0  0  0  0  0  0  0  0  0  0  0
   12.8923    0.7500    0.0000 O   0  0  0  0  0  0  0  0  0  0  0  0
  1  2  1  0
  2  3  1  0
  2  4  1  0
  4  5  1  0
  5  6  1  0
  6  7  1  0
  7  8  1  0
  7  9  1  0
  9 10  2  0
 10 11  1  0
 11 12  2  0
 12 13  1  0
 13 14  2  0
  7 15  1  0
 15 16  2  0
 16 17  1  0
 17 18  2  0
 18 19  1  0
 19 20  2  0
 21 22  1  0
 22 23  2  0
 22 24  1  0
 24 25  1  0
 25 26  1  0
 26 27  2  0
 26 28  1  0
 14  9  1  0
 20 15  1  0
M  END
$$$$
66273
     RDKit          2D

 20 21  0  0  0  0  0  0  0  0999 V2000
    7.5000   -5.1962    0.0000 C   0  0  0  0  0  0  0  0  0  0  0  0
    6.0000   -5.1962    0.0000 N   0  0  0  0  0  0  0  0  0  0  0  0
    5.2500   -6.4952    0.0000 C   0  0  0  0  0  0  0  0  0  0  0  0
    5.2500   -3.8971    0.0000 C   0  0  0  0  0  0  0  0  0  0  0  0
    3.7500   -3.8971    0.0000 C   0  0  0  0  0  0  0  0  0  0  0  0
    3.0000   -2.5981    0.0000 O   0  0  0  0  0  0  0  0  0  0  0  0
    1.5000   -2.5981    0.0000 C   0  0  0  0  0  0  0  0  0  0  0  0
    0.7500   -1.2990    0.0000 C   0  0  0  0  0  0  0  0  0  0  0  0
    1.5000    0.0000    0.0000 C   0  0  0  0  0  0  0  0  0  0  0  0
    0.7500    1.2990    0.0000 C   0  0  0  0  0  0  0  0  0  0  0  0
   -0.7500    1.2990    0.0000 C   0  0  0  0  0  0  0  0  0  0  0  0
   -1.5000    2.5981    0.0000 Cl  0  0  0  0  0  0  0  0  0  0  0  0
   -1.5000    0.0000    0.0000 C   0  0  0  0  0  0  0  0  0  0  0  0
   -0.7500   -1.2990    0.0000 C   0  0  0  0  0  0  0  0  0  0  0  0
    0.7500   -3.8971    0.0000 C   0  0  0  0  0  0  0  0  0  0  0  0
   -0.7500   -3.8971    0.0000 C   0  0  0  0  0  0  0  0  0  0  0  0
   -1.5000   -5.1962    0.0000 C   0  0  0  0  0  0  0  0  0  0  0  0
   -0.7500   -6.4952    0.0000 C   0  0  0  0  0  0  0  0  0  0  0  0
    0.7500   -6.4952    0.0000 C   0  0  0  0  0  0  0  0  0  0  0  0
    1.5000   -5.1962    0.0000 N   0  0  0  0  0  0  0  0  0  0  0  0
  1  2  1  0
  2  3  1  0
  2  4  1  0
  4  5  1  0
  5  6  1  0
  6  7  1  0
  7  8  1  0
  8  9  2  0
  9 10  1  0
 10 11  2  0
 11 12  1  0
 11 13  1  0
 13 14  2  0
  7 15  1  0
 15 16  2  0
 16 17  1  0
 17 18  2  0
 18 19  1  0
 19 20  2  0
 14  8  1  0
 20 15  1  0
M  END
$$$$
674925
     RDKit          2D

 28 28  0  0  0  0  0  0  0  0999 V2000
    7.5000   -5.1962    0.0000 C   0  0  0  0  0  0  0  0  0  0  0  0
    6.0000   -5.1962    0.0000 N   0  0  0  0  0  0  0  0  0  0  0  0
    5.2500   -6.4952    0.0000 C   0  0  0  0  0  0  0  0  0  0  0  0
    5.2500   -3.8971    0.0000 C   0  0  0  0  0  0  0  0  0  0  0  0
    3.7500   -3.8971    0.0000 C   0  0  0  0  0  0  0  0  0  0  0  0
    3.0000   -2.5981    0.0000 O   0  0  0  0  0  0  0  0  0  0  0  0
    1.5000   -2.5981    0.0000 C   0  0  0  0  0  0  0  0  0  0  0  0
    0.7500   -1.2990    0.0000 C   0  0  0  0  0  0  0  0  0  0  0  0
    1.5000    0.0000    0.0000 C   0  0  0  0  0  0  0  0  0  0  0  0
    0.7500    1.2990    0.0000 C   0  0  0  0  0  0  0  0  0  0  0  0
   -0.7500    1.2990    0.0000 C   0  0  0  0  0  0  0  0  0  0  0  0
   -1.5000    2.5981    0.0000 Cl  0  0  0  0  0  0  0  0  0  0  0  0
   -1.5000    0.0000    0.0000 C   0  0  0  0  0  0  0  0  0  0  0  0
   -0.7500   -1.2990    0.0000 C   0  0  0  0  0  0  0  0  0  0  0  0
    0.7500   -3.8971    0.0000 C   0  0  0  0  0  0  0  0  0  0  0  0
   -0.7500   -3.8971    0.0000 C   0  0  0  0  0  0  0  0  0  0  0  0
   -1.5000   -5.1962    0.0000 C   0  0  0  0  0  0  0  0  0  0  0  0
   -0.7500   -6.4952    0.0000 C   0  0  0  0  0  0  0  0  0  0  0  0
    0.7500   -6.4952    0.0000 C   0  0  0  0  0  0  0  0  0  0  0  0
    1.5000   -5.1962    0.0000 N   0  0  0  0  0  0  0  0  0  0  0  0
    8.5000   -1.2990    0.0000 O   0  0  0  0  0  0  0  0  0  0  0  0
   10.0000   -1.2990    0.0000 C   0  0  0  0  0  0  0  0  0  0  0  0
   10.7500   -2.5981    0.0000 O   0  0  0  0  0  0  0  0  0  0  0  0
   10.7500    0.0000    0.0000 C   0  0  0  0  0  0  0  0  0  0  0  0
   12.2500    0.0000    0.0000 C   0  0  0  0  0  0  0  0  0  0  0  0
   13.0000   -1.2990    0.0000 C   0  0  0  0  0  0  0  0  0  0  0  0
   12.2500   -2.5981    0.0000 O   0  0  0  0  0  0  0  0  0  0  0  0
   14.5000   -1.2990    0.0000 O   0  0  0  0  0  0  0  0  0  0  0  0
  1  2  1  0
  2  3  1  0
  2  4  1  0
  4  5  1  0
  5  6  1  0
  6  7  1  0
  7  8  1  0
  8  9  2  0
  9 10  1  0
 10 11  2  0
 11 12  1  0
 11 13  1  0
 13 14  2  0
  7 15  1  0
 15 16  2  0
 16 17  1  0
 17 18  2  0
 18 19  1  0
 19 20  2  0
 21 22  1  0
 22 23  2  0
 22 24  1  0
 24 25  2  0
 25 26  1  0
 26 27  2  0
 26 28  1  0
 14  8  1  0
 20 15  1  0
M  END
$$$$
675196
     RDKit          2D

 20 21  0  0  0  0  0  0  0  0999 V2000
    7.5000   -5.1962    0.0000 C   0  0  0  0  0  0  0  0  0  0  0  0
    6.0000   -5.1962    0.0000 N   0  0  0  0  0  0  0  0  0  0  0  0
    5.2500   -6.4952    0.0000 C   0  0  0  0  0  0  0  0  0  0  0  0
    5.2500   -3.8971    0.0000 C   0  0  0  0  0  0  0  0  0  0  0  0
    3.7500   -3.8971    0.0000 C   0  0  0  0  0  0  0  0  0  0  0  0
    3.0000   -2.5981    0.0000 O   0  0  0  0  0  0  0  0  0  0  0  0
    1.5000   -2.5981    0.0000 C   0  0  0  0  0  0  0  0  0  0  0  0
    0.7500   -1.2990    0.0000 C   0  0  0  0  0  0  0  0  0  0  0  0
    1.5000    0.0000    0.0000 C   0  0  0  0  0  0  0  0  0  0  0  0
    0.7500    1.2990    0.0000 C   0  0  0  0  0  0  0  0  0  0  0  0
   -0.7500    1.2990    0.0000 C   0  0  0  0  0  0  0  0  0  0  0  0
   -1.5000    0.0000    0.0000 C   0  0  0  0  0  0  0  0  0  0  0  0
   -0.7500   -1.2990    0.0000 C   0  0  0  0  0  0  0  0  0  0  0  0
    0.7500   -3.8971    0.0000 C   0  0  0  0  0  0  0  0  0  0  0  0
   -0.7500   -3.8971    0.0000 C   0  0  0  0  0  0  0  0  0  0  0  0
   -1.5000   -5.1962    0.0000 C   0  0  0  0  0  0  0  0  0  0  0  0
   -0.7500   -6.4952    0.0000 C   0  0  0  0  0  0  0  0  0  0  0  0
   -1.5000   -7.7942    0.0000 Br  0  0  0  0  0  0  0  0  0  0  0  0
    0.7500   -6.4952    0.0000 C   0  0  0  0  0  0  0  0  0  0  0  0
    1.5000   -5.1962    0.0000 C   0  0  0  0  0  0  0  0  0  0  0  0
  1  2  1  0
  2  3  1  0
  2  4  1  0
  4  5  1  0
  5  6  1  0
  6  7  1  0
  7  8  1  0
  8  9  2  0
  9 10  1  0
 10 11  2  0
 11 12  1  0
 12 13  2  0
  7 14  1  0
 14 15  2  0
 15 16  1  0
 16 17  2  0
 17 18  1  0
 17 19  1  0
 19 20  2  0
 13  8  1  0
 20 14  1  0
M  END
$$$$
27629
     RDKit          2D

 19 20  0  0  0  0  0  0  0  0999 V2000
    7.5000   -5.1962    0.0000 C   0  0  0  0  0  0  0  0  0  0  0  0
    6.0000   -5.1962    0.0000 N   0  0  0  0  0  0  0  0  0  0  0  0
    5.2500   -6.4952    0.0000 C   0  0  0  0  0  0  0  0  0  0  0  0
    5.2500   -3.8971    0.0000 C   0  0  0  0  0  0  0  0  0  0  0  0
    3.7500   -3.8971    0.0000 C   0  0  0  0  0  0  0  0  0  0  0  0
    3.0000   -2.5981    0.0000 O   0  0  0  0  0  0  0  0  0  0  0  0
    1.5000   -2.5981    0.0000 C   0  0  0  0  0  0  0  0  0  0  0  0
    0.7500   -1.2990    0.0000 C   0  0  0  0  0  0  0  0  0  0  0  0
    1.5000    0.0000    0.0000 C   0  0  0  0  0  0  0  0  0  0  0  0
    0.7500    1.2990    0.0000 C   0  0  0  0  0  0  0  0  0  0  0  0
   -0.7500    1.2990    0.0000 C   0  0  0  0  0  0  0  0  0  0  0  0
   -1.5000    0.0000    0.0000 C   0  0  0  0  0  0  0  0  0  0  0  0
   -0.7500   -1.2990    0.0000 C   0  0  0  0  0  0  0  0  0  0  0  0
    0.7500   -3.8971    0.0000 C   0  0  0  0  0  0  0  0  0  0  0  0
   -0.7500   -3.8971    0.0000 C   0  0  0  0  0  0  0  0  0  0  0  0
   -1.5000   -5.1962    0.0000 C   0  0  0  0  0  0  0  0  0  0  0  0
   -0.7500   -6.4952    0.0000 C   0  0  0  0  0  0  0  0  0  0  0  0
    0.7500   -6.4952    0.0000 C   0  0  0  0  0  0  0  0  0  0  0  0
    1.5000   -5.1962    0.0000 C   0  0  0  0  0  0  0  0  0  0  0  0
  1  2  1  0
  2  3  1  0
  2  4  1  0
  4  5  1  0
  5  6  1  0
  6  7  1  0
  7  8  1  0
  8  9  2  0
  9 10  1  0
 10 11  2  0
 11 12  1  0
 12 13  2  0
  7 14  1  0
 14 15  2  0
 15 16  1  0
 16 17  2  0
 17 18  1  0
 18 19  2  0
 13  8  1  0
 19 14  1  0
M  END
$$$$
674357
     RDKit          2D

 33 35  0  0  0  0  0  0  0  0999 V2000
    7.5000   -5.1962    0.0000 C   0  0  0  0  0  0  0  0  0  0  0  0
    6.0000   -5.1962    0.0000 N   0  0  0  0  0  0  0  0  0  0  0  0
    5.2500   -6.4952    0.0000 C   0  0  0  0  0  0  0  0  0  0  0  0
    5.2500   -3.8971    0.0000 C   0  0  0  0  0  0  0  0  0  0  0  0
    3.7500   -3.8971    0.0000 C   0  0  0  0  0  0  0  0  0  0  0  0
    3.0000   -2.5981    0.0000 O   0  0  0  0  0  0  0  0  0  0  0  0
    1.5000   -2.5981    0.0000 C   0  0  0  0  0  0  0  0  0  0  0  0
    0.7500   -1.2990    0.0000 C   0  0  0  0  0  0  0  0  0  0  0  0
    1.5000    0.0000    0.0000 C   0  0  0  0  0  0  0  0  0  0  0  0
    0.7500    1.2990    0.0000 C   0  0  0  0  0  0  0  0  0  0  0  0
   -0.7500    1.2990    0.0000 C   0  0  0  0  0  0  0  0  0  0  0  0
   -1.5000    0.0000    0.0000 C   0  0  0  0  0  0  0  0  0  0  0  0
   -0.7500   -1.2990    0.0000 C   0  0  0  0  0  0  0  0  0  0  0  0
    0.7500   -3.8971    0.0000 C   0  0  0  0  0  0  0  0  0  0  0  0
   -0.7500   -3.8971    0.0000 C   0  0  0  0  0  0  0  0  0  0  0  0
   -1.5000   -5.1962    0.0000 C   0  0  0  0  0  0  0  0  0  0  0  0
   -0.7500   -6.4952    0.0000 C   0  0  0  0  0  0  0  0  0  0  0  0
    0.7500   -6.4952    0.0000 C   0  0  0  0  0  0  0  0  0  0  0  0
    1.5000   -5.1962    0.0000 C   0  0  0  0  0  0  0  0  0  0  0  0
   -2.9499    9.1638    0.0000 C   0  0  0  0  0  0  0  0  0  0  0  0
   -1.8351    8.1601    0.0000 N   0  0  0  0  0  0  0  0  0  0  0  0
   -0.4086    8.6236    0.0000 C   0  0  0  0  0  0  0  0  0  0  0  0
   -0.0967   10.0908    0.0000 O   0  0  0  0  0  0  0  0  0  0  0  0
    0.7062    7.6199    0.0000 N   0  0  0  0  0  0  0  0  0  0  0  0
    2.1328    8.0834    0.0000 C   0  0  0  0  0  0  0  0  0  0  0  0
    0.3943    6.1527    0.0000 C   0  0  0  0  0  0  0  0  0  0  0  0
    1.2760    4.9391    0.0000 N   0  0  0  0  0  0  0  0  0  0  0  0
    0.3943    3.7256    0.0000 C   0  0  0  0  0  0  0  0  0  0  0  0
    0.8578    2.2990    0.0000 Cl  0  0  0  0  0  0  0  0  0  0  0  0
   -1.0323    4.1891    0.0000 N   0  0  0  0  0  0  0  0  0  0  0  0
   -1.0323    5.6891    0.0000 C   0  0  0  0  0  0  0  0  0  0  0  0
   -2.1470    6.6928    0.0000 C   0  0  0  0  0  0  0  0  0  0  0  0
   -3.5736    6.2293    0.0000 O   0  0  0  0  0  0  0  0  0  0  0  0
  1  2  1  0
  2  3  1  0
  2  4  1  0
  4  5  1  0
  5  6  1  0
  6  7  1  0
  7  8  1  0
  8  9  2  0
  9 10  1  0
 10 11  2  0
 11 12  1  0
 12 13  2  0
  7 14  1  0
 14 15  2  0
 15 16  1  0
 16 17  2  0
 17 18  1  0
 18 19  2  0
 20 21  1  0
 21 22  1  0
 22 23  2  0
 22 24  1  0
 24 25  1  0
 24 26  1  0
 26 27  1  0
 27 28  2  0
 28 29  1  0
 28 30  1  0
 30 31  1  0
 31 32  1  0
 32 33  2  0
 13  8  1  0
 19 14  1  0
 32 21  1  0
 31 26  2  0
M  END
$$$$
675040
     RDKit          2D

 32 32  0  0  0  0  0  0  0  0999 V2000
    7.5000   -5.1962    0.0000 C   0  0  0  0  0  0  0  0  0  0  0  0
    6.0000   -5.1962    0.0000 N   0  0  0  0  0  0  0  0  0  0  0  0
    5.2500   -6.4952    0.0000 C   0  0  0  0  0  0  0  0  0  0  0  0
    5.2500   -3.8971    0.0000 C   0  0  0  0  0  0  0  0  0  0  0  0
    3.7500   -3.8971    0.0000 C   0  0  0  0  0  0  0  0  0  0  0  0
    3.0000   -2.5981    0.0000 O   0  0  0  0  0  0  0  0  0  0  0  0
    1.5000   -2.5981    0.0000 C   0  0  0  0  0  0  0  0  0  0  0  0
    0.7500   -1.2990    0.0000 C   0  0  0  0  0  0  0  0  0  0  0  0
    1.5000    0.0000    0.0000 C   0  0  0  0  0  0  0  0  0  0  0  0
    0.7500    1.2990    0.0000 C   0  0  0  0  0  0  0  0  0  0  0  0
   -0.7500    1.2990    0.0000 C   0  0  0  0  0  0  0  0  0  0  0  0
   -1.5000    0.0000    0.0000 C   0  0  0  0  0  0  0  0  0  0  0  0
   -0.7500   -1.2990    0.0000 C   0  0  0  0  0  0  0  0  0  0  0  0
    0.7500   -3.8971    0.0000 C   0  0  0  0  0  0  0  0  0  0  0  0
   -0.7500   -3.8971    0.0000 C   0  0  0  0  0  0  0  0  0  0  0  0
   -1.5000   -5.1962    0.0000 C   0  0  0  0  0  0  0  0  0  0  0  0
   -0.7500   -6.4952    0.0000 C   0  0  0  0  0  0  0  0  0  0  0  0
    0.7500   -6.4952    0.0000 C   0  0  0  0  0  0  0  0  0  0  0  0
    1.5000   -5.1962    0.0000 C   0  0  0  0  0  0  0  0  0  0  0  0
   -2.5981    4.1471    0.0000 O   0  0  0  0  0  0  0  0  0  0  0  0
   -1.2990    4.8971    0.0000 C   0  0  0  0  0  0  0  0  0  0  0  0
   -1.2990    6.3971    0.0000 O   0  0  0  0  0  0  0  0  0  0  0  0
    0.0000    4.1471    0.0000 C   0  0  0  0  0  0  0  0  0  0  0  0
    1.2990    4.8971    0.0000 C   0  0  0  0  0  0  0  0  0  0  0  0
    0.5490    6.1962    0.0000 O   0  0  0  0  0  0  0  0  0  0  0  0
    2.5981    5.6471    0.0000 C   0  0  0  0  0  0  0  0  0  0  0  0
    2.5981    7.1471    0.0000 C   0  0  0  0  0  0  0  0  0  0  0  0
    1.2990    7.8971    0.0000 O   0  0  0  0  0  0  0  0  0  0  0  0
    3.8971    7.8971    0.0000 O   0  0  0  0  0  0  0  0  0  0  0  0
    2.0490    3.5981    0.0000 C   0  0  0  0  0  0  0  0  0  0  0  0
    1.2990    2.2990    0.0000 O   0  0  0  0  0  0  0  0  0  0  0  0
    3.5490    3.5981    0.0000 O   0  0  0  0  0  0  0  0  0  0  0  0
  1  2  1  0
  2  3  1  0
  2  4  1  0
  4  5  1  0
  5  6  1  0
  6  7  1  0
  7  8  1  0
  8  9  2  0
  9 10  1  0
 10 11  2  0
 11 12  1  0
 12 13  2  0
  7 14  1  0
 14 15  2  0
 15 16  1  0
 16 17  2  0
 17 18  1  0
 18 19  2  0
 20 21  1  0
 21 22  2  0
 21 23  1  0
 23 24  1  0
 24 25  1  0
 24 26  1  0
 26 27  1  0
 27 28  2  0
 27 29  1  0
 24 30  1  0
 30 31  2  0
 30 32  1  0
 13  8  1  0
 19 14  1  0
M  END
$$$$
77779
     RDKit          2D

 20 21  0  0  0  0  0  0  0  0999 V2000
    7.5000   -5.1962    0.0000 C   0  0  0  0  0  0  0  0  0  0  0  0
    6.0000   -5.1962    0.0000 N   0  0  0  0  0  0  0  0  0  0  0  0
    5.2500   -6.4952    0.0000 C   0  0  0  0  0  0  0  0  0  0  0  0
    5.2500   -3.8971    0.0000 C   0  0  0  0  0  0  0  0  0  0  0  0
    3.7500   -3.8971    0.0000 C   0  0  0  0  0  0  0  0  0  0  0  0
    3.0000   -2.5981    0.0000 O   0  0  0  0  0  0  0  0  0  0  0  0
    1.5000   -2.5981    0.0000 C   0  0  0  0  0  0  0  0  0  0  0  0
    0.7500   -1.2990    0.0000 C   0  0  0  0  0  0  0  0  0  0  0  0
    1.5000    0.0000    0.0000 C   0  0  0  0  0  0  0  0  0  0  0  0
    0.7500    1.2990    0.0000 C   0  0  0  0  0  0  0  0  0  0  0  0
   -0.7500    1.2990    0.0000 C   0  0  0  0  0  0  0  0  0  0  0  0
   -1.5000    0.0000    0.0000 C   0  0  0  0  0  0  0  0  0  0  0  0
   -0.7500   -1.2990    0.0000 C   0  0  0  0  0  0  0  0  0  0  0  0
    0.7500   -3.8971    0.0000 C   0  0  0  0  0  0  0  0  0  0  0  0
   -0.7500   -3.8971    0.0000 C   0  0  0  0  0  0  0  0  0  0  0  0
   -1.5000   -5.1962    0.0000 C   0  0  0  0  0  0  0  0  0  0  0  0
   -0.7500   -6.4952    0.0000 C   0  0  0  0  0  0  0  0  0  0  0  0
    0.7500   -6.4952    0.0000 C   0  0  0  0  0  0  0  0  0  0  0  0
    1.5000   -5.1962    0.0000 C   0  0  0  0  0  0  0  0  0  0  0  0
    3.0000   -5.1962    0.0000 C   0  0  0  0  0  0  0  0  0  0  0  0
  1  2  1  0
  2  3  1  0
  2  4  1  0
  4  5  1  0
  5  6  1  0
  6  7  1  0
  7  8  1  0
  8  9  2  0
  9 10  1  0
 10 11  2  0
 11 12  1  0
 12 13  2  0
  7 14  1  0
 14 15  2  0
 15 16  1  0
 16 17  2  0
 17 18  1  0
 18 19  2  0
 19 20  1  0
 13  8  1  0
 19 14  1  0
M  END
$$$$
674346
     RDKit          2D

 33 33  0  0  0  0  0  0  0  0999 V2000
    7.5000   -5.1962    0.0000 C   0  0  0  0  0  0  0  0  0  0  0  0
    6.0000   -5.1962    0.0000 N   0  0  0  0  0  0  0  0  0  0  0  0
    5.2500   -6.4952    0.0000 C   0  0  0  0  0  0  0  0  0  0  0  0
    5.2500   -3.8971    0.0000 C   0  0  0  0  0  0  0  0  0  0  0  0
    3.7500   -3.8971    0.0000 C   0  0  0  0  0  0  0  0  0  0  0  0
    3.0000   -2.5981    0.0000 O   0  0  0  0  0  0  0  0  0  0  0  0
    1.5000   -2.5981    0.0000 C   0  0  0  0  0  0  0  0  0  0  0  0
    0.7500   -1.2990    0.0000 C   0  0  0  0  0  0  0  0  0  0  0  0
    1.5000    0.0000    0.0000 C   0  0  0  0  0  0  0  0  0  0  0  0
    0.7500    1.2990    0.0000 C   0  0  0  0  0  0  0  0  0  0  0  0
   -0.7500    1.2990    0.0000 C   0  0  0  0  0  0  0  0  0  0  0  0
   -1.5000    0.0000    0.0000 C   0  0  0  0  0  0  0  0  0  0  0  0
   -0.7500   -1.2990    0.0000 C   0  0  0  0  0  0  0  0  0  0  0  0
    0.7500   -3.8971    0.0000 C   0  0  0  0  0  0  0  0  0  0  0  0
   -0.7500   -3.8971    0.0000 C   0  0  0  0  0  0  0  0  0  0  0  0
   -1.5000   -5.1962    0.0000 C   0  0  0  0  0  0  0  0  0  0  0  0
   -0.7500   -6.4952    0.0000 C   0  0  0  0  0  0  0  0  0  0  0  0
    0.7500   -6.4952    0.0000 C   0  0  0  0  0  0  0  0  0  0  0  0
    1.5000   -5.1962    0.0000 C   0  0  0  0  0  0  0  0  0  0  0  0
    3.0000   -5.1962    0.0000 C   0  0  0  0  0  0  0  0  0  0  0  0
   -2.5981    4.1471    0.0000 O   0  0  0  0  0  0  0  0  0  0  0  0
   -1.2990    4.8971    0.0000 C   0  0  0  0  0  0  0  0  0  0  0  0
   -1.2990    6.3971    0.0000 O   0  0  0  0  0  0  0  0  0  0  0  0
    0.0000    4.1471    0.0000 C   0  0  0  0  0  0  0  0  0  0  0  0
    1.2990    4.8971    0.0000 C   0  0  0  0  0  0  0  0  0  0  0  0
    0.5490    6.1962    0.0000 O   0  0  0  0  0  0  0  0  0  0  0  0
    2.5981    5.6471    0.0000 C   0  0  0  0  0  0  0  0  0  0  0  0
    2.5981    7.1471    0.0000 C   0  0  0  0  0  0  0  0  0  0  0  0
    1.2990    7.8971    0.0000 O   0  0  0  0  0  0  0  0  0  0  0  0
    3.8971    7.8971    0.0000 O   0  0  0  0  0  0  0  0  0  0  0  0
    2.0490    3.5981    0.0000 C   0  0  0  0  0  0  0  0  0  0  0  0
    1.2990    2.2990    0.0000 O   0  0  0  0  0  0  0  0  0  0  0  0
    3.5490    3.5981    0.0000 O   0  0  0  0  0  0  0  0  0  0  0  0
  1  2  1  0
  2  3  1  0
  2  4  1  0
  4  5  1  0
  5  6  1  0
  6  7  1  0
  7  8  1  0
  8  9  2  0
  9 10  1  0
 10 11  2  0
 11 12  1  0
 12 13  2  0
  7 14  1  0
 14 15  2  0
 15 16  1  0
 16 17  2  0
 17 18  1  0
 18 19  2  0
 19 20  1  0
 21 22  1  0
 22 23  2  0
 22 24  1  0
 24 25  1  0
 25 26  1  0
 25 27  1  0
 27 28  1  0
 28 29  2  0
 28 30  1  0
 25 31  1  0
 31 32  2  0
 31 33  1  0
 13  8  1  0
 19 14  1  0
M  END
$$$$
495109
     RDKit          2D

 29 31  0  0  0  0  0  0  0  0999 V2000
    7.5000   -2.5981    0.0000 C   0  0  0  0  0  0  0  0  0  0  0  0
    6.0000   -2.5981    0.0000 N   0  0  0  0  0  0  0  0  0  0  0  0
    5.2500   -3.8971    0.0000 C   0  0  0  0  0  0  0  0  0  0  0  0
    5.2500   -1.2990    0.0000 C   0  0  0  0  0  0  0  0  0  0  0  0
    3.7500   -1.2990    0.0000 C   0  0  0  0  0  0  0  0  0  0  0  0
    3.0000    0.0000    0.0000 O   0  0  0  0  0  0  0  0  0  0  0  0
    1.5000    0.0000    0.0000 C   0  0  0  0  0  0  0  0  0  0  0  0
    0.7500   -1.2990    0.0000 C   0  0  0  0  0  0  0  0  0  0  0  0
   -0.7500   -1.2990    0.0000 C   0  0  0  0  0  0  0  0  0  0  0  0
   -1.5000    0.0000    0.0000 C   0  0  0  0  0  0  0  0  0  0  0  0
   -0.7500    1.2990    0.0000 C   0  0  0  0  0  0  0  0  0  0  0  0
    0.7500    1.2990    0.0000 C   0  0  0  0  0  0  0  0  0  0  0  0
   -3.0000    0.0000    0.0000 C   0  0  0  0  0  0  0  0  0  0  0  0
   -3.7500    1.2990    0.0000 C   0  0  0  0  0  0  0  0  0  0  0  0
   -5.2500    1.2990    0.0000 C   0  0  0  0  0  0  0  0  0  0  0  0
   -6.0000    2.5981    0.0000 C   0  0  0  0  0  0  0  0  0  0  0  0
   -7.5000    2.5981    0.0000 Cl  0  0  0  0  0  0  0  0  0  0  0  0
   -3.0000    2.5981    0.0000 C   0  0  0  0  0  0  0  0  0  0  0  0
   -1.5000    2.5981    0.0000 C   0  0  0  0  0  0  0  0  0  0  0  0
   -0.7500    3.8971    0.0000 C   0  0  0  0  0  0  0  0  0  0  0  0
   -1.5000    5.1962    0.0000 C   0  0  0  0  0  0  0  0  0  0  0  0
   -3.0000    5.1962    0.0000 C   0  0  0  0  0  0  0  0  0  0  0  0
   -3.7500    3.8971    0.0000 C   0  0  0  0  0  0  0  0  0  0  0  0
   -3.7500   -1.2990    0.0000 C   0  0  0  0  0  0  0  0  0  0  0  0
   -5.2500   -1.2990    0.0000 C   0  0  0  0  0  0  0  0  0  0  0  0
   -6.0000   -2.5981    0.0000 C   0  0  0  0  0  0  0  0  0  0  0  0
   -5.2500   -3.8971    0.0000 C   0  0  0  0  0  0  0  0  0  0  0  0
   -3.7500   -3.8971    0.0000 C   0  0  0  0  0  0  0  0  0  0  0  0
   -3.0000   -2.5981    0.0000 C   0  0  0  0  0  0  0  0  0  0  0  0
  1  2  1  0
  2  3  1  0
  2  4  1  0
  4  5  1  0
  5  6  1  0
  6  7  1  0
  7  8  2  0
  8  9  1  0
  9 10  2  0
 10 11  1  0
 11 12  2  0
 10 13  1  0
 13 14  2  0
 14 15  1  0
 15 16  1  0
 16 17  1  0
 14 18  1  0
 18 19  2  0
 19 20  1  0
 20 21  2  0
 21 22  1  0
 22 23  2  0
 13 24  1  0
 24 25  2  0
 25 26  1  0
 26 27  2  0
 27 28  1  0
 28 29  2  0
 12  7  1  0
 23 18  1  0
 29 24  1  0
M  END
$$$$
674626
     RDKit          2D

 42 43  0  0  0  0  0  0  0  0999 V2000
    7.5000   -2.5981    0.0000 C   0  0  0  0  0  0  0  0  0  0  0  0
    6.0000   -2.5981    0.0000 N   0  0  0  0  0  0  0  0  0  0  0  0
    5.2500   -3.8971    0.0000 C   0  0  0  0  0  0  0  0  0  0  0  0
    5.2500   -1.2990    0.0000 C   0  0  0  0  0  0  0  0  0  0  0  0
    3.7500   -1.2990    0.0000 C   0  0  0  0  0  0  0  0  0  0  0  0
    3.0000    0.0000    0.0000 O   0  0  0  0  0  0  0  0  0  0  0  0
    1.5000    0.0000    0.0000 C   0  0  0  0  0  0  0  0  0  0  0  0
    0.7500   -1.2990    0.0000 C   0  0  0  0  0  0  0  0  0  0  0  0
   -0.7500   -1.2990    0.0000 C   0  0  0  0  0  0  0  0  0  0  0  0
   -1.5000    0.0000    0.0000 C   0  0  0  0  0  0  0  0  0  0  0  0
   -0.7500    1.2990    0.0000 C   0  0  0  0  0  0  0  0  0  0  0  0
    0.7500    1.2990    0.0000 C   0  0  0  0  0  0  0  0  0  0  0  0
   -3.0000    0.0000    0.0000 C   0  0  0  0  0  0  0  0  0  0  0  0
   -3.7500    1.2990    0.0000 C   0  0  0  0  0  0  0  0  0  0  0  0
   -5.2500    1.2990    0.0000 C   0  0  0  0  0  0  0  0  0  0  0  0
   -6.0000    2.5981    0.0000 C   0  0  0  0  0  0  0  0  0  0  0  0
   -7.5000    2.5981    0.0000 Cl  0  0  0  0  0  0  0  0  0  0  0  0
   -3.0000    2.5981    0.0000 C   0  0  0  0  0  0  0  0  0  0  0  0
   -1.5000    2.5981    0.0000 C   0  0  0  0  0  0  0  0  0  0  0  0
   -0.7500    3.8971    0.0000 C   0  0  0  0  0  0  0  0  0  0  0  0
   -1.5000    5.1962    0.0000 C   0  0  0  0  0  0  0  0  0  0  0  0
   -3.0000    5.1962    0.0000 C   0  0  0  0  0  0  0  0  0  0  0  0
   -3.7500    3.8971    0.0000 C   0  0  0  0  0  0  0  0  0  0  0  0
   -3.7500   -1.2990    0.0000 C   0  0  0  0  0  0  0  0  0  0  0  0
   -5.2500   -1.2990    0.0000 C   0  0  0  0  0  0  0  0  0  0  0  0
   -6.0000   -2.5981    0.0000 C   0  0  0  0  0  0  0  0  0  0  0  0
   -5.2500   -3.8971    0.0000 C   0  0  0  0  0  0  0  0  0  0  0  0
   -3.7500   -3.8971    0.0000 C   0  0  0  0  0  0  0  0  0  0  0  0
   -3.0000   -2.5981    0.0000 C   0  0  0  0  0  0  0  0  0  0  0  0
   -2.5981    8.0442    0.0000 O   0  0  0  0  0  0  0  0  0  0  0  0
   -1.2990    8.7942    0.0000 C   0  0  0  0  0  0  0  0  0  0  0  0
   -1.2990   10.2942    0.0000 O   0  0  0  0  0  0  0  0  0  0  0  0
    0.0000    8.0442    0.0000 C   0  0  0  0  0  0  0  0  0  0  0  0
    1.2990    8.7942    0.0000 C   0  0  0  0  0  0  0  0  0  0  0  0
    0.5490   10.0933    0.0000 O   0  0  0  0  0  0  0  0  0  0  0  0
    2.5981    9.5442    0.0000 C   0  0  0  0  0  0  0  0  0  0  0  0
    2.5981   11.0442    0.0000 C   0  0  0  0  0  0  0  0  0  0  0  0
    1.2990   11.7942    0.0000 O   0  0  0  0  0  0  0  0  0  0  0  0
    3.8971   11.7942    0.0000 O   0  0  0  0  0  0  0  0  0  0  0  0
    2.0490    7.4952    0.0000 C   0  0  0  0  0  0  0  0  0  0  0  0
    1.2990    6.1962    0.0000 O   0  0  0  0  0  0  0  0  0  0  0  0
    3.5490    7.4952    0.0000 O   0  0  0  0  0  0  0  0  0  0  0  0
  1  2  1  0
  2  3  1  0
  2  4  1  0
  4  5  1  0
  5  6  1  0
  6  7  1  0
  7  8  2  0
  8  9  1  0
  9 10  2  0
 10 11  1  0
 11 12  2  0
 10 13  1  0
 13 14  2  0
 14 15  1  0
 15 16  1  0
 16 17  1  0
 14 18  1  0
 18 19  2  0
 19 20  1  0
 20 21  2  0
 21 22  1  0
 22 23  2  0
 13 24  1  0
 24 25  2  0
 25 26  1  0
 26 27  2  0
 27 28  1  0
 28 29  2  0
 30 31  1  0
 31 32  2  0
 31 33  1  0
 33 34  1  0
 34 35  1  0
 34 36  1  0
 36 37  1  0
 37 38  2  0
 37 39  1  0
 34 40  1  0
 40 41  2  0
 40 42  1  0
 12  7  1  0
 23 18  1  0
 29 24  1  0
M  END
$$$$
675238
     RDKit          2D

 19 20  0  0  0  0  0  0  0  0999 V2000
    1.5000   -7.7942    0.0000 C   0  0  0  0  0  0  0  0  0  0  0  0
    0.7500   -6.4952    0.0000 N   0  0  0  0  0  0  0  0  0  0  0  0
   -0.7500   -6.4952    0.0000 C   0  0  0  0  0  0  0  0  0  0  0  0
    1.5000   -5.1962    0.0000 C   0  0  0  0  0  0  0  0  0  0  0  0
    0.7500   -3.8971    0.0000 C   0  0  0  0  0  0  0  0  0  0  0  0
    1.5000   -2.5981    0.0000 C   0  0  0  0  0  0  0  0  0  0  0  0
    0.7500   -1.2990    0.0000 C   0  0  0  0  0  0  0  0  0  0  0  0
    1.5000    0.0000    0.0000 C   0  0  0  0  0  0  0  0  0  0  0  0
    0.7500    1.2990    0.0000 C   0  0  0  0  0  0  0  0  0  0  0  0
   -0.7500    1.2990    0.0000 C   0  0  0  0  0  0  0  0  0  0  0  0
   -1.5000    2.5981    0.0000 Br  0  0  0  0  0  0  0  0  0  0  0  0
   -1.5000    0.0000    0.0000 C   0  0  0  0  0  0  0  0  0  0  0  0
   -0.7500   -1.2990    0.0000 C   0  0  0  0  0  0  0  0  0  0  0  0
    3.0000   -2.5981    0.0000 C   0  0  0  0  0  0  0  0  0  0  0  0
    3.7500   -3.8971    0.0000 C   0  0  0  0  0  0  0  0  0  0  0  0
    5.2500   -3.8971    0.0000 C   0  0  0  0  0  0  0  0  0  0  0  0
    6.0000   -2.5981    0.0000 C   0  0  0  0  0  0  0  0  0  0  0  0
    5.2500   -1.2990    0.0000 C   0  0  0  0  0  0  0  0  0  0  0  0
    3.7500   -1.2990    0.0000 N   0  0  0  0  0  0  0  0  0  0  0  0
  1  2  1  0
  2  3  1  0
  2  4  1  0
  4  5  1  0
  6  5  1  1
  6  7  1  0
  7  8  2  0
  8  9  1  0
  9 10  2  0
 10 11  1  0
 10 12  1  0
 12 13  2  0
  6 14  1  0
 14 15  2  0
 15 16  1  0
 16 17  2  0
 17 18  1  0
 18 19  2  0
 13  7  1  0
 19 14  1  0
M  END
$$$$
674589
     RDKit          2D

 27 27  0  0  0  0  0  0  0  0999 V2000
    1.5000   -7.7942    0.0000 C   0  0  0  0  0  0  0  0  0  0  0  0
    0.7500   -6.4952    0.0000 N   0  0  0  0  0  0  0  0  0  0  0  0
   -0.7500   -6.4952    0.0000 C   0  0  0  0  0  0  0  0  0  0  0  0
    1.5000   -5.1962    0.0000 C   0  0  0  0  0  0  0  0  0  0  0  0
    0.7500   -3.8971    0.0000 C   0  0  0  0  0  0  0  0  0  0  0  0
    1.5000   -2.5981    0.0000 C   0  0  0  0  0  0  0  0  0  0  0  0
    0.7500   -1.2990    0.0000 C   0  0  0  0  0  0  0  0  0  0  0  0
    1.5000    0.0000    0.0000 C   0  0  0  0  0  0  0  0  0  0  0  0
    0.7500    1.2990    0.0000 C   0  0  0  0  0  0  0  0  0  0  0  0
   -0.7500    1.2990    0.0000 C   0  0  0  0  0  0  0  0  0  0  0  0
   -1.5000    2.5981    0.0000 Br  0  0  0  0  0  0  0  0  0  0  0  0
   -1.5000    0.0000    0.0000 C   0  0  0  0  0  0  0  0  0  0  0  0
   -0.7500   -1.2990    0.0000 C   0  0  0  0  0  0  0  0  0  0  0  0
    3.0000   -2.5981    0.0000 C   0  0  0  0  0  0  0  0  0  0  0  0
    3.7500   -3.8971    0.0000 C   0  0  0  0  0  0  0  0  0  0  0  0
    5.2500   -3.8971    0.0000 C   0  0  0  0  0  0  0  0  0  0  0  0
    6.0000   -2.5981    0.0000 C   0  0  0  0  0  0  0  0  0  0  0  0
    5.2500   -1.2990    0.0000 C   0  0  0  0  0  0  0  0  0  0  0  0
    3.7500   -1.2990    0.0000 N   0  0  0  0  0  0  0  0  0  0  0  0
    7.0000   -1.2990    0.0000 O   0  0  0  0  0  0  0  0  0  0  0  0
    8.5000   -1.2990    0.0000 C   0  0  0  0  0  0  0  0  0  0  0  0
    9.2500   -2.5981    0.0000 O   0  0  0  0  0  0  0  0  0  0  0  0
    9.2500    0.0000    0.0000 C   0  0  0  0  0  0  0  0  0  0  0  0
   10.7500    0.0000    0.0000 C   0  0  0  0  0  0  0  0  0  0  0  0
   11.5000   -1.2990    0.0000 C   0  0  0  0  0  0  0  0  0  0  0  0
   10.7500   -2.5981    0.0000 O   0  0  0  0  0  0  0  0  0  0  0  0
   13.0000   -1.2990    0.0000 O   0  0  0  0  0  0  0  0  0  0  0  0
  1  2  1  0
  2  3  1  0
  2  4  1  0
  4  5  1  0
  6  5  1  1
  6  7  1  0
  7  8  2  0
  8  9  1  0
  9 10  2  0
 10 11  1  0
 10 12  1  0
 12 13  2  0
  6 14  1  0
 14 15  2  0
 15 16  1  0
 16 17  2  0
 17 18  1  0
 18 19  2  0
 20 21  1  0
 21 22  2  0
 21 23  1  0
 23 24  2  0
 24 25  1  0
 25 26  2  0
 25 27  1  0
 13  7  1  0
 19 14  1  0
M  END
$$$$
675304
     RDKit          2D

 19 20  0  0  0  0  0  0  0  0999 V2000
    1.5000   -7.7942    0.0000 C   0  0  0  0  0  0  0  0  0  0  0  0
    0.7500   -6.4952    0.0000 N   0  0  0  0  0  0  0  0  0  0  0  0
   -0.7500   -6.4952    0.0000 C   0  0  0  0  0  0  0  0  0  0  0  0
    1.5000   -5.1962    0.0000 C   0  0  0  0  0  0  0  0  0  0  0  0
    0.7500   -3.8971    0.0000 C   0  0  0  0  0  0  0  0  0  0  0  0
    1.5000   -2.5981    0.0000 C   0  0  0  0  0  0  0  0  0  0  0  0
    0.7500   -1.2990    0.0000 C   0  0  0  0  0  0  0  0  0  0  0  0
    1.5000    0.0000    0.0000 C   0  0  0  0  0  0  0  0  0  0  0  0
    0.7500    1.2990    0.0000 C   0  0  0  0  0  0  0  0  0  0  0  0
   -0.7500    1.2990    0.0000 C   0  0  0  0  0  0  0  0  0  0  0  0
   -1.5000    2.5981    0.0000 Cl  0  0  0  0  0  0  0  0  0  0  0  0
   -1.5000    0.0000    0.0000 C   0  0  0  0  0  0  0  0  0  0  0  0
   -0.7500   -1.2990    0.0000 C   0  0  0  0  0  0  0  0  0  0  0  0
    3.0000   -2.5981    0.0000 C   0  0  0  0  0  0  0  0  0  0  0  0
    3.7500   -3.8971    0.0000 C   0  0  0  0  0  0  0  0  0  0  0  0
    5.2500   -3.8971    0.0000 C   0  0  0  0  0  0  0  0  0  0  0  0
    6.0000   -2.5981    0.0000 C   0  0  0  0  0  0  0  0  0  0  0  0
    5.2500   -1.2990    0.0000 C   0  0  0  0  0  0  0  0  0  0  0  0
    3.7500   -1.2990    0.0000 N   0  0  0  0  0  0  0  0  0  0  0  0
  1  2  1  0
  2  3  1  0
  2  4  1  0
  4  5  1  0
  6  5  1  1
  6  7  1  0
  7  8  2  0
  8  9  1  0
  9 10  2  0
 10 11  1  0
 10 12  1  0
 12 13  2  0
  6 14  1  0
 14 15  2  0
 15 16  1  0
 16 17  2  0
 17 18  1  0
 18 19  2  0
 13  7  1  0
 19 14  1  0
M  END
$$$$
674878
     RDKit          2D

 27 27  0  0  0  0  0  0  0  0999 V2000
    1.5000   -7.7942    0.0000 C   0  0  0  0  0  0  0  0  0  0  0  0
    0.7500   -6.4952    0.0000 N   0  0  0  0  0  0  0  0  0  0  0  0
   -0.7500   -6.4952    0.0000 C   0  0  0  0  0  0  0  0  0  0  0  0
    1.5000   -5.1962    0.0000 C   0  0  0  0  0  0  0  0  0  0  0  0
    0.7500   -3.8971    0.0000 C   0  0  0  0  0  0  0  0  0  0  0  0
    1.5000   -2.5981    0.0000 C   0  0  0  0  0  0  0  0  0  0  0  0
    0.7500   -1.2990    0.0000 C   0  0  0  0  0  0  0  0  0  0  0  0
    1.5000    0.0000    0.0000 C   0  0  0  0  0  0  0  0  0  0  0  0
    0.7500    1.2990    0.0000 C   0  0  0  0  0  0  0  0  0  0  0  0
   -0.7500    1.2990    0.0000 C   0  0  0  0  0  0  0  0  0  0  0  0
   -1.5000    2.5981    0.0000 Cl  0  0  0  0  0  0  0  0  0  0  0  0
   -1.5000    0.0000    0.0000 C   0  0  0  0  0  0  0  0  0  0  0  0
   -0.7500   -1.2990    0.0000 C   0  0  0  0  0  0  0  0  0  0  0  0
    3.0000   -2.5981    0.0000 C   0  0  0  0  0  0  0  0  0  0  0  0
    3.7500   -3.8971    0.0000 C   0  0  0  0  0  0  0  0  0  0  0  0
    5.2500   -3.8971    0.0000 C   0  0  0  0  0  0  0  0  0  0  0  0
    6.0000   -2.5981    0.0000 C   0  0  0  0  0  0  0  0  0  0  0  0
    5.2500   -1.2990    0.0000 C   0  0  0  0  0  0  0  0  0  0  0  0
    3.7500   -1.2990    0.0000 N   0  0  0  0  0  0  0  0  0  0  0  0
    7.0000   -1.2990    0.0000 O   0  0  0  0  0  0  0  0  0  0  0  0
    8.5000   -1.2990    0.0000 C   0  0  0  0  0  0  0  0  0  0  0  0
    9.2500   -2.5981    0.0000 O   0  0  0  0  0  0  0  0  0  0  0  0
    9.2500    0.0000    0.0000 C   0  0  0  0  0  0  0  0  0  0  0  0
   10.7500    0.0000    0.0000 C   0  0  0  0  0  0  0  0  0  0  0  0
   11.5000   -1.2990    0.0000 C   0  0  0  0  0  0  0  0  0  0  0  0
   10.7500   -2.5981    0.0000 O   0  0  0  0  0  0  0  0  0  0  0  0
   13.0000   -1.2990    0.0000 O   0  0  0  0  0  0  0  0  0  0  0  0
  1  2  1  0
  2  3  1  0
  2  4  1  0
  4  5  1  0
  6  5  1  1
  6  7  1  0
  7  8  2  0
  8  9  1  0
  9 10  2  0
 10 11  1  0
 10 12  1  0
 12 13  2  0
  6 14  1  0
 14 15  2  0
 15 16  1  0
 16 17  2  0
 17 18  1  0
 18 19  2  0
 20 21  1  0
 21 22  2  0
 21 23  1  0
 23 24  2  0
 24 25  1  0
 25 26  2  0
 25 27  1  0
 13  7  1  0
 19 14  1  0
M  END
$$$$
80209
     RDKit          2D

 21 23  0  0  0  0  0  0  0  0999 V2000
    7.5000   -5.1962    0.0000 C   0  0  0  0  0  0  0  0  0  0  0  0
    6.0000   -5.1962    0.0000 N   0  0  0  0  0  0  0  0  0  0  0  0
    5.2500   -6.4952    0.0000 C   0  0  0  0  0  0  0  0  0  0  0  0
    5.2500   -3.8971    0.0000 C   0  0  0  0  0  0  0  0  0  0  0  0
    3.7500   -3.8971    0.0000 C   0  0  0  0  0  0  0  0  0  0  0  0
    3.0000   -2.5981    0.0000 C   0  0  0  0  0  0  0  0  0  0  0  0
    1.5000   -2.5981    0.0000 C   0  0  0  0  0  0  0  0  0  0  0  0
    0.7500   -1.2990    0.0000 C   0  0  0  0  0  0  0  0  0  0  0  0
    1.5000    0.0000    0.0000 C   0  0  0  0  0  0  0  0  0  0  0  0
    0.7500    1.2990    0.0000 C   0  0  0  0  0  0  0  0  0  0  0  0
   -0.7500    1.2990    0.0000 C   0  0  0  0  0  0  0  0  0  0  0  0
   -1.5000    0.0000    0.0000 C   0  0  0  0  0  0  0  0  0  0  0  0
   -0.7500   -1.2990    0.0000 C   0  0  0  0  0  0  0  0  0  0  0  0
   -1.5000   -2.5981    0.0000 S   0  0  0  0  0  0  0  0  0  0  0  0
   -0.7500   -3.8971    0.0000 C   0  0  0  0  0  0  0  0  0  0  0  0
   -1.5000   -5.1962    0.0000 C   0  0  0  0  0  0  0  0  0  0  0  0
   -0.7500   -6.4952    0.0000 C   0  0  0  0  0  0  0  0  0  0  0  0
    0.7500   -6.4952    0.0000 C   0  0  0  0  0  0  0  0  0  0  0  0
    1.5000   -7.7942    0.0000 Cl  0  0  0  0  0  0  0  0  0  0  0  0
    1.5000   -5.1962    0.0000 C   0  0  0  0  0  0  0  0  0  0  0  0
    0.7500   -3.8971    0.0000 C   0  0  0  0  0  0  0  0  0  0  0  0
  1  2  1  0
  2  3  1  0
  2  4  1  0
  4  5  1  0
  5  6  1  0
  6  7  2  0
  7  8  1  0
  8  9  2  0
  9 10  1  0
 10 11  2  0
 11 12  1  0
 12 13  2  0
 13 14  1  0
 14 15  1  0
 15 16  2  0
 16 17  1  0
 17 18  2  0
 18 19  1  0
 18 20  1  0
 20 21  2  0
 21  7  1  0
 13  8  1  0
 21 15  1  0
M  END
$$$$
650126
     RDKit          2D

 34 37  0  0  0  0  0  0  0  0999 V2000
  -10.5000   -7.7942    0.0000 C   0  0  0  0  0  0  0  0  0  0  0  0
   -9.7500   -6.4952    0.0000 N   0  0  0  0  0  0  0  0  0  0  0  0
  -10.5000   -5.1962    0.0000 C   0  0  0  0  0  0  0  0  0  0  0  0
   -8.2500   -6.4952    0.0000 C   0  0  0  0  0  0  0  0  0  0  0  0
   -7.5000   -5.1962    0.0000 C   0  0  0  0  0  0  0  0  0  0  0  0
   -6.0000   -5.1962    0.0000 C   0  0  0  0  0  0  0  0  0  0  0  0
   -5.2500   -3.8971    0.0000 C   0  0  0  0  0  0  0  0  0  0  0  0
   -6.0000   -2.5981    0.0000 O   0  0  0  0  0  0  0  0  0  0  0  0
   -3.7500   -3.8971    0.0000 N   0  0  0  0  0  0  0  0  0  0  0  0
   -3.0000   -2.5981    0.0000 C   0  0  0  0  0  0  0  0  0  0  0  0
   -1.5000   -2.5981    0.0000 C   0  0  0  0  0  0  0  0  0  0  0  0
   -0.7500   -1.2990    0.0000 C   0  0  0  0  0  0  0  0  0  0  0  0
    0.7500   -1.2990    0.0000 C   0  0  0  0  0  0  0  0  0  0  0  0
    1.5000   -2.5981    0.0000 N   0  0  0  0  0  0  0  0  0  0  0  0
    3.0000   -2.5981    0.0000 C   0  0  0  0  0  0  0  0  0  0  0  0
    3.7500   -3.8971    0.0000 C   0  0  0  0  0  0  0  0  0  0  0  0
    5.2500   -3.8971    0.0000 C   0  0  0  0  0  0  0  0  0  0  0  0
    6.0000   -2.5981    0.0000 C   0  0  0  0  0  0  0  0  0  0  0  0
    7.5000   -2.5981    0.0000 F   0  0  0  0  0  0  0  0  0  0  0  0
    5.2500   -1.2990    0.0000 C   0  0  0  0  0  0  0  0  0  0  0  0
    6.0000   -0.0000    0.0000 Cl  0  0  0  0  0  0  0  0  0  0  0  0
    3.7500   -1.2990    0.0000 C   0  0  0  0  0  0  0  0  0  0  0  0
    1.5000    0.0000    0.0000 N   0  0  0  0  0  0  0  0  0  0  0  0
    0.7500    1.2990    0.0000 C   0  0  0  0  0  0  0  0  0  0  0  0
   -0.7500    1.2990    0.0000 N   0  0  0  0  0  0  0  0  0  0  0  0
   -1.5000    0.0000    0.0000 C   0  0  0  0  0  0  0  0  0  0  0  0
   -3.0000    0.0000    0.0000 C   0  0  0  0  0  0  0  0  0  0  0  0
   -3.7500   -1.2990    0.0000 C   0  0  0  0  0  0  0  0  0  0  0  0
   -5.2500   -1.2990    0.0000 O   0  0  0  0  0  0  0  0  0  0  0  0
   -6.0000    0.0000    0.0000 C   0  0  0  0  0  0  0  0  0  0  0  0
   -7.4918    0.1568    0.0000 C   0  0  0  0  0  0  0  0  0  0  0  0
   -7.8037    1.6240    0.0000 C   0  0  0  0  0  0  0  0  0  0  0  0
   -6.5046    2.3740    0.0000 O   0  0  0  0  0  0  0  0  0  0  0  0
   -5.3899    1.3703    0.0000 C   0  0  0  0  0  0  0  0  0  0  0  0
  1  2  1  0
  2  3  1  0
  2  4  1  0
  4  5  1  0
  5  6  2  0
  6  7  1  0
  7  8  2  0
  7  9  1  0
  9 10  1  0
 10 11  2  0
 11 12  1  0
 12 13  2  0
 13 14  1  0
 14 15  1  0
 15 16  2  0
 16 17  1  0
 17 18  2  0
 18 19  1  0
 18 20  1  0
 20 21  1  0
 20 22  2  0
 13 23  1  0
 23 24  2  0
 24 25  1  0
 25 26  2  0
 26 27  1  0
 27 28  2  0
 28 29  1  0
 30 29  1  1
 30 31  1  0
 31 32  1  0
 32 33  1  0
 33 34  1  0
 28 10  1  0
 26 12  1  0
 22 15  1  0
 34 30  1  0
M  END
$$$$
1377982
     RDKit          2D

 50 51  0  0  0  0  0  0  0  0999 V2000
  -10.5000   -7.7942    0.0000 C   0  0  0  0  0  0  0  0  0  0  0  0
   -9.7500   -6.4952    0.0000 N   0  0  0  0  0  0  0  0  0  0  0  0
  -10.5000   -5.1962    0.0000 C   0  0  0  0  0  0  0  0  0  0  0  0
   -8.2500   -6.4952    0.0000 C   0  0  0  0  0  0  0  0  0  0  0  0
   -7.5000   -5.1962    0.0000 C   0  0  0  0  0  0  0  0  0  0  0  0
   -6.0000   -5.1962    0.0000 C   0  0  0  0  0  0  0  0  0  0  0  0
   -5.2500   -3.8971    0.0000 C   0  0  0  0  0  0  0  0  0  0  0  0
   -6.0000   -2.5981    0.0000 O   0  0  0  0  0  0  0  0  0  0  0  0
   -3.7500   -3.8971    0.0000 N   0  0  0  0  0  0  0  0  0  0  0  0
   -3.0000   -2.5981    0.0000 C   0  0  0  0  0  0  0  0  0  0  0  0
   -1.5000   -2.5981    0.0000 C   0  0  0  0  0  0  0  0  0  0  0  0
   -0.7500   -1.2990    0.0000 C   0  0  0  0  0  0  0  0  0  0  0  0
    0.7500   -1.2990    0.0000 C   0  0  0  0  0  0  0  0  0  0  0  0
    1.5000   -2.5981    0.0000 N   0  0  0  0  0  0  0  0  0  0  0  0
    3.0000   -2.5981    0.0000 C   0  0  0  0  0  0  0  0  0  0  0  0
    3.7500   -3.8971    0.0000 C   0  0  0  0  0  0  0  0  0  0  0  0
    5.2500   -3.8971    0.0000 C   0  0  0  0  0  0  0  0  0  0  0  0
    6.0000   -2.5981    0.0000 C   0  0  0  0  0  0  0  0  0  0  0  0
    7.5000   -2.5981    0.0000 F   0  0  0  0  0  0  0  0  0  0  0  0
    5.2500   -1.2990    0.0000 C   0  0  0  0  0  0  0  0  0  0  0  0
    6.0000   -0.0000    0.0000 Cl  0  0  0  0  0  0  0  0  0  0  0  0
    3.7500   -1.2990    0.0000 C   0  0  0  0  0  0  0  0  0  0  0  0
    1.5000    0.0000    0.0000 N   0  0  0  0  0  0  0  0  0  0  0  0
    0.7500    1.2990    0.0000 C   0  0  0  0  0  0  0  0  0  0  0  0
   -0.7500    1.2990    0.0000 N   0  0  0  0  0  0  0  0  0  0  0  0
   -1.5000    0.0000    0.0000 C   0  0  0  0  0  0  0  0  0  0  0  0
   -3.0000    0.0000    0.0000 C   0  0  0  0  0  0  0  0  0  0  0  0
   -3.7500   -1.2990    0.0000 C   0  0  0  0  0  0  0  0  0  0  0  0
   -5.2500   -1.2990    0.0000 O   0  0  0  0  0  0  0  0  0  0  0  0
   -6.0000    0.0000    0.0000 C   0  0  0  0  0  0  0  0  0  0  0  0
   -7.4918    0.1568    0.0000 C   0  0  0  0  0  0  0  0  0  0  0  0
   -7.8037    1.6240    0.0000 C   0  0  0  0  0  0  0  0  0  0  0  0
   -6.5046    2.3740    0.0000 O   0  0  0  0  0  0  0  0  0  0  0  0
   -5.3899    1.3703    0.0000 C   0  0  0  0  0  0  0  0  0  0  0  0
   -2.2500    4.6731    0.0000 O   0  0  0  0  0  0  0  0  0  0  0  0
   -0.7500    4.6731    0.0000 C   0  0  0  0  0  0  0  0  0  0  0  0
    0.0000    3.3740    0.0000 O   0  0  0  0  0  0  0  0  0  0  0  0
    0.0000    5.9721    0.0000 C   0  0  0  0  0  0  0  0  0  0  0  0
    1.5000    5.9721    0.0000 C   0  0  0  0  0  0  0  0  0  0  0  0
    2.2500    4.6731    0.0000 C   0  0  0  0  0  0  0  0  0  0  0  0
    1.5000    3.3740    0.0000 O   0  0  0  0  0  0  0  0  0  0  0  0
    3.7500    4.6731    0.0000 O   0  0  0  0  0  0  0  0  0  0  0  0
   -2.2500    8.2711    0.0000 O   0  0  0  0  0  0  0  0  0  0  0  0
   -0.7500    8.2711    0.0000 C   0  0  0  0  0  0  0  0  0  0  0  0
    0.0000    6.9721    0.0000 O   0  0  0  0  0  0  0  0  0  0  0  0
    0.0000    9.5702    0.0000 C   0  0  0  0  0  0  0  0  0  0  0  0
    1.5000    9.5702    0.0000 C   0  0  0  0  0  0  0  0  0  0  0  0
    2.2500    8.2711    0.0000 C   0  0  0  0  0  0  0  0  0  0  0  0
    1.5000    6.9721    0.0000 O   0  0  0  0  0  0  0  0  0  0  0  0
    3.7500    8.2711    0.0000 O   0  0  0  0  0  0  0  0  0  0  0  0
  1  2  1  0
  2  3  1  0
  2  4  1  0
  4  5  1  0
  5  6  2  0
  6  7  1  0
  7  8  2  0
  7  9  1  0
  9 10  1  0
 10 11  2  0
 11 12  1  0
 12 13  2  0
 13 14  1  0
 14 15  1  0
 15 16  2  0
 16 17  1  0
 17 18  2  0
 18 19  1  0
 18 20  1  0
 20 21  1  0
 20 22  2  0
 13 23  1  0
 23 24  2  0
 24 25  1  0
 25 26  2  0
 26 27  1  0
 27 28  2  0
 28 29  1  0
 30 29  1  1
 30 31  1  0
 31 32  1  0
 32 33  1  0
 33 34  1  0
 35 36  1  0
 36 37  2  0
 36 38  1  0
 38 39  2  0
 39 40  1  0
 40 41  2  0
 40 42  1  0
 43 44  1  0
 44 45  2  0
 44 46  1  0
 46 47  2  0
 47 48  1  0
 48 49  2  0
 48 50  1  0
 28 10  1  0
 26 12  1  0
 22 15  1  0
 34 30  1  0
M  END
$$$$
209829
     RDKit          2D

 30 33  0  0  0  0  0  0  0  0999 V2000
   -1.5000  -10.3923    0.0000 C   0  0  0  0  0  0  0  0  0  0  0  0
   -2.2500   -9.0933    0.0000 N   0  0  0  0  0  0  0  0  0  0  0  0
   -3.7500   -9.0933    0.0000 C   0  0  0  0  0  0  0  0  0  0  0  0
   -1.5000   -7.7942    0.0000 S   0  0  0  0  0  0  0  0  0  0  0  0
   -2.7990   -7.0442    0.0000 O   0  0  0  0  0  0  0  0  0  0  0  0
   -0.2010   -8.5442    0.0000 O   0  0  0  0  0  0  0  0  0  0  0  0
   -0.7500   -6.4952    0.0000 C   0  0  0  0  0  0  0  0  0  0  0  0
    0.7500   -6.4952    0.0000 C   0  0  0  0  0  0  0  0  0  0  0  0
    1.5000   -5.1962    0.0000 C   0  0  0  0  0  0  0  0  0  0  0  0
    0.7500   -3.8971    0.0000 C   0  0  0  0  0  0  0  0  0  0  0  0
    1.5000   -2.5981    0.0000 S   0  0  0  0  0  0  0  0  0  0  0  0
    0.7500   -1.2990    0.0000 C   0  0  0  0  0  0  0  0  0  0  0  0
    1.5000    0.0000    0.0000 C   0  0  0  0  0  0  0  0  0  0  0  0
    0.7500    1.2990    0.0000 C   0  0  0  0  0  0  0  0  0  0  0  0
   -0.7500    1.2990    0.0000 C   0  0  0  0  0  0  0  0  0  0  0  0
   -1.5000    0.0000    0.0000 C   0  0  0  0  0  0  0  0  0  0  0  0
   -0.7500   -1.2990    0.0000 C   0  0  0  0  0  0  0  0  0  0  0  0
   -1.5000   -2.5981    0.0000 C   0  0  0  0  0  0  0  0  0  0  0  0
   -3.0000   -2.5981    0.0000 C   0  0  0  0  0  0  0  0  0  0  0  0
   -3.7500   -3.8971    0.0000 C   0  0  0  0  0  0  0  0  0  0  0  0
   -5.2500   -3.8971    0.0000 C   0  0  0  0  0  0  0  0  0  0  0  0
   -6.0000   -5.1962    0.0000 N   0  0  0  0  0  0  0  0  0  0  0  0
   -7.5000   -5.1962    0.0000 C   0  0  0  0  0  0  0  0  0  0  0  0
   -8.2500   -6.4952    0.0000 C   0  0  0  0  0  0  0  0  0  0  0  0
   -7.5000   -7.7942    0.0000 N   0  0  0  0  0  0  0  0  0  0  0  0
   -8.2500   -9.0933    0.0000 C   0  0  0  0  0  0  0  0  0  0  0  0
   -6.0000   -7.7942    0.0000 C   0  0  0  0  0  0  0  0  0  0  0  0
   -5.2500   -6.4952    0.0000 C   0  0  0  0  0  0  0  0  0  0  0  0
   -0.7500   -3.8971    0.0000 C   0  0  0  0  0  0  0  0  0  0  0  0
   -1.5000   -5.1962    0.0000 C   0  0  0  0  0  0  0  0  0  0  0  0
  1  2  1  0
  2  3  1  0
  2  4  1  0
  4  5  2  0
  4  6  2  0
  4  7  1  0
  7  8  2  0
  8  9  1  0
  9 10  2  0
 10 11  1  0
 11 12  1  0
 12 13  2  0
 13 14  1  0
 14 15  2  0
 15 16  1  0
 16 17  2  0
 17 18  1  0
 18 19  2  0
 19 20  1  0
 20 21  1  0
 21 22  1  0
 22 23  1  0
 23 24  1  0
 24 25  1  0
 25 26  1  0
 25 27  1  0
 27 28  1  0
 18 29  1  0
 29 30  2  0
 30  7  1  0
 29 10  1  0
 17 12  1  0
 28 22  1  0
M  END
$$$$
371561
     RDKit          2D

 33 36  0  0  0  0  0  0  0  0999 V2000
    3.7500   -9.0933    0.0000 C   0  0  0  0  0  0  0  0  0  0  0  0
    3.0000   -7.7942    0.0000 N   0  0  0  0  0  0  0  0  0  0  0  0
    3.7500   -6.4952    0.0000 C   0  0  0  0  0  0  0  0  0  0  0  0
    1.5000   -7.7942    0.0000 C   0  0  0  0  0  0  0  0  0  0  0  0
    0.7500   -6.4952    0.0000 C   0  0  0  0  0  0  0  0  0  0  0  0
    1.5000   -5.1962    0.0000 C   0  0  0  0  0  0  0  0  0  0  0  0
    0.7500   -3.8971    0.0000 C   0  0  0  0  0  0  0  0  0  0  0  0
    1.5000   -2.5981    0.0000 C   0  0  0  0  0  0  0  0  0  0  0  0
    0.7500   -1.2990    0.0000 C   0  0  0  0  0  0  0  0  0  0  0  0
    1.5000    0.0000    0.0000 C   0  0  0  0  0  0  0  0  0  0  0  0
    0.7500    1.2990    0.0000 C   0  0  0  0  0  0  0  0  0  0  0  0
   -0.7500    1.2990    0.0000 C   0  0  0  0  0  0  0  0  0  0  0  0
   -1.5000    0.0000    0.0000 C   0  0  0  0  0  0  0  0  0  0  0  0
   -3.0000    0.0000    0.0000 O   0  0  0  0  0  0  0  0  0  0  0  0
   -0.7500   -1.2990    0.0000 C   0  0  0  0  0  0  0  0  0  0  0  0
   -1.5000   -2.5981    0.0000 C   0  0  0  0  0  0  0  0  0  0  0  0
   -3.0000   -2.5981    0.0000 O   0  0  0  0  0  0  0  0  0  0  0  0
   -0.7500   -3.8971    0.0000 C   0  0  0  0  0  0  0  0  0  0  0  0
   -1.5000   -5.1962    0.0000 C   0  0  0  0  0  0  0  0  0  0  0  0
   -3.0000   -5.1962    0.0000 O   0  0  0  0  0  0  0  0  0  0  0  0
   -0.7500   -6.4952    0.0000 C   0  0  0  0  0  0  0  0  0  0  0  0
   -2.2500   -6.4952    0.0000 O   0  0  0  0  0  0  0  0  0  0  0  0
   -1.5000   -7.7942    0.0000 C   0  0  0  0  0  0  0  0  0  0  0  0
   -3.0000   -7.7942    0.0000 O   0  0  0  0  0  0  0  0  0  0  0  0
   -0.7500   -9.0933    0.0000 C   0  0  0  0  0  0  0  0  0  0  0  0
    0.7500   -9.0933    0.0000 C   0  0  0  0  0  0  0  0  0  0  0  0
    1.5000  -10.3923    0.0000 O   0  0  0  0  0  0  0  0  0  0  0  0
   -1.5000  -10.3923    0.0000 C   0  0  0  0  0  0  0  0  0  0  0  0
   -0.7500  -11.6913    0.0000 O   0  0  0  0  0  0  0  0  0  0  0  0
   -3.0000  -10.3923    0.0000 N   0  0  0  0  0  0  0  0  0  0  0  0
    3.0000    0.0000    0.0000 N   0  0  0  0  0  0  0  0  0  0  0  0
    3.7500    1.2990    0.0000 C   0  0  0  0  0  0  0  0  0  0  0  0
    3.7500   -1.2990    0.0000 C   0  0  0  0  0  0  0  0  0  0  0  0
  1  2  1  0
  2  3  1  0
  4  2  1  6
  4  5  1  0
  5  6  1  1
  7  6  1  1
  7  8  1  0
  8  9  1  0
  9 10  2  0
 10 11  1  0
 11 12  2  0
 12 13  1  0
 13 14  1  0
 13 15  2  0
 15 16  1  0
 16 17  2  0
 16 18  1  0
 18 19  2  0
 19 20  1  0
 19 21  1  0
 21 22  1  6
 21 23  1  0
 23 24  2  0
 23 25  1  0
 25 26  2  0
 26 27  1  0
 25 28  1  0
 28 29  2  0
 28 30  1  0
 10 31  1  0
 31 32  1  0
 31 33  1  0
 26  4  1  0
 21  5  1  0
 18  7  1  0
 15  9  1  0
M  END
$$$$
454084
     RDKit          2D

 32 35  0  0  0  0  0  0  0  0999 V2000
    3.7500   -9.0933    0.0000 C   0  0  0  0  0  0  0  0  0  0  0  0
    3.0000   -7.7942    0.0000 N   0  0  0  0  0  0  0  0  0  0  0  0
    3.7500   -6.4952    0.0000 C   0  0  0  0  0  0  0  0  0  0  0  0
    1.5000   -7.7942    0.0000 C   0  0  0  0  0  0  0  0  0  0  0  0
    0.7500   -6.4952    0.0000 C   0  0  0  0  0  0  0  0  0  0  0  0
    1.5000   -5.1962    0.0000 C   0  0  0  0  0  0  0  0  0  0  0  0
    0.7500   -3.8971    0.0000 C   0  0  0  0  0  0  0  0  0  0  0  0
    1.5000   -2.5981    0.0000 C   0  0  0  0  0  0  0  0  0  0  0  0
    3.0000   -2.5981    0.0000 O   0  0  0  0  0  0  0  0  0  0  0  0
    0.7500   -1.2990    0.0000 C   0  0  0  0  0  0  0  0  0  0  0  0
    1.5000    0.0000    0.0000 C   0  0  0  0  0  0  0  0  0  0  0  0
    3.0000    0.0000    0.0000 Cl  0  0  0  0  0  0  0  0  0  0  0  0
    0.7500    1.2990    0.0000 C   0  0  0  0  0  0  0  0  0  0  0  0
   -0.7500    1.2990    0.0000 C   0  0  0  0  0  0  0  0  0  0  0  0
   -1.5000    0.0000    0.0000 C   0  0  0  0  0  0  0  0  0  0  0  0
   -3.0000    0.0000    0.0000 O   0  0  0  0  0  0  0  0  0  0  0  0
   -0.7500   -1.2990    0.0000 C   0  0  0  0  0  0  0  0  0  0  0  0
   -1.5000   -2.5981    0.0000 C   0  0  0  0  0  0  0  0  0  0  0  0
   -3.0000   -2.5981    0.0000 O   0  0  0  0  0  0  0  0  0  0  0  0
   -0.7500   -3.8971    0.0000 C   0  0  0  0  0  0  0  0  0  0  0  0
   -1.5000   -5.1962    0.0000 C   0  0  0  0  0  0  0  0  0  0  0  0
   -3.0000   -5.1962    0.0000 O   0  0  0  0  0  0  0  0  0  0  0  0
   -0.7500   -6.4952    0.0000 C   0  0  0  0  0  0  0  0  0  0  0  0
   -2.2500   -6.4952    0.0000 O   0  0  0  0  0  0  0  0  0  0  0  0
   -1.5000   -7.7942    0.0000 C   0  0  0  0  0  0  0  0  0  0  0  0
   -3.0000   -7.7942    0.0000 O   0  0  0  0  0  0  0  0  0  0  0  0
   -0.7500   -9.0933    0.0000 C   0  0  0  0  0  0  0  0  0  0  0  0
    0.7500   -9.0933    0.0000 C   0  0  0  0  0  0  0  0  0  0  0  0
    1.5000  -10.3923    0.0000 O   0  0  0  0  0  0  0  0  0  0  0  0
   -1.5000  -10.3923    0.0000 C   0  0  0  0  0  0  0  0  0  0  0  0
   -0.7500  -11.6913    0.0000 O   0  0  0  0  0  0  0  0  0  0  0  0
   -3.0000  -10.3923    0.0000 N   0  0  0  0  0  0  0  0  0  0  0  0
  1  2  1  0
  2  3  1  0
  4  2  1  6
  4  5  1  0
  5  6  1  1
  7  6  1  1
  7  8  1  0
  8  9  1  1
  8 10  1  0
 10 11  2  0
 11 12  1  0
 11 13  1  0
 13 14  2  0
 14 15  1  0
 15 16  1  0
 15 17  2  0
 17 18  1  0
 18 19  2  0
 18 20  1  0
 20 21  2  0
 21 22  1  0
 21 23  1  0
 23 24  1  6
 23 25  1  0
 25 26  2  0
 25 27  1  0
 27 28  2  0
 28 29  1  0
 27 30  1  0
 30 31  2  0
 30 32  1  0
 28  4  1  0
 23  5  1  0
 20  7  1  0
 17 10  1  0
M  END
$$$$
373985
     RDKit          2D

 32 35  0  0  0  0  0  0  0  0999 V2000
   -3.7500   -9.0933    0.0000 C   0  0  0  0  0  0  0  0  0  0  0  0
   -3.0000   -7.7942    0.0000 N   0  0  0  0  0  0  0  0  0  0  0  0
   -3.7500   -6.4952    0.0000 C   0  0  0  0  0  0  0  0  0  0  0  0
   -1.5000   -7.7942    0.0000 C   0  0  0  0  0  0  0  0  0  0  0  0
   -0.7500   -6.4952    0.0000 C   0  0  0  0  0  0  0  0  0  0  0  0
   -1.5000   -5.1962    0.0000 C   0  0  0  0  0  0  0  0  0  0  0  0
   -0.7500   -3.8971    0.0000 C   0  0  0  0  0  0  0  0  0  0  0  0
    0.7500   -3.8971    0.0000 C   0  0  0  0  0  0  0  0  0  0  0  0
    1.5000   -5.1962    0.0000 C   0  0  0  0  0  0  0  0  0  0  0  0
    3.0000   -5.1962    0.0000 O   0  0  0  0  0  0  0  0  0  0  0  0
    0.7500   -6.4952    0.0000 C   0  0  0  0  0  0  0  0  0  0  0  0
    2.2500   -6.4952    0.0000 O   0  0  0  0  0  0  0  0  0  0  0  0
    1.5000   -7.7942    0.0000 C   0  0  0  0  0  0  0  0  0  0  0  0
    3.0000   -7.7942    0.0000 O   0  0  0  0  0  0  0  0  0  0  0  0
    0.7500   -9.0933    0.0000 C   0  0  0  0  0  0  0  0  0  0  0  0
   -0.7500   -9.0933    0.0000 C   0  0  0  0  0  0  0  0  0  0  0  0
   -1.5000  -10.3923    0.0000 O   0  0  0  0  0  0  0  0  0  0  0  0
    1.5000  -10.3923    0.0000 C   0  0  0  0  0  0  0  0  0  0  0  0
    3.0000  -10.3923    0.0000 O   0  0  0  0  0  0  0  0  0  0  0  0
    0.7500  -11.6913    0.0000 N   0  0  0  0  0  0  0  0  0  0  0  0
    1.5000   -2.5981    0.0000 C   0  0  0  0  0  0  0  0  0  0  0  0
    3.0000   -2.5981    0.0000 O   0  0  0  0  0  0  0  0  0  0  0  0
    0.7500   -1.2990    0.0000 C   0  0  0  0  0  0  0  0  0  0  0  0
    1.5000    0.0000    0.0000 C   0  0  0  0  0  0  0  0  0  0  0  0
    3.0000    0.0000    0.0000 O   0  0  0  0  0  0  0  0  0  0  0  0
    0.7500    1.2990    0.0000 C   0  0  0  0  0  0  0  0  0  0  0  0
   -0.7500    1.2990    0.0000 C   0  0  0  0  0  0  0  0  0  0  0  0
   -1.5000    0.0000    0.0000 C   0  0  0  0  0  0  0  0  0  0  0  0
   -0.7500   -1.2990    0.0000 C   0  0  0  0  0  0  0  0  0  0  0  0
   -1.5000   -2.5981    0.0000 C   0  0  0  0  0  0  0  0  0  0  0  0
   -2.6491   -3.5623    0.0000 C   0  0  0  0  0  0  0  0  0  0  0  0
   -2.6491   -1.6339    0.0000 O   0  0  0  0  0  0  0  0  0  0  0  0
  1  2  1  0
  2  3  1  0
  4  2  1  1
  4  5  1  0
  5  6  1  6
  7  6  1  6
  7  8  1  0
  8  9  2  0
  9 10  1  0
  9 11  1  0
 11 12  1  1
 11 13  1  0
 13 14  2  0
 13 15  1  0
 15 16  2  0
 16 17  1  0
 15 18  1  0
 18 19  2  0
 18 20  1  0
  8 21  1  0
 21 22  2  0
 21 23  1  0
 23 24  2  0
 24 25  1  0
 24 26  1  0
 26 27  2  0
 27 28  1  0
 28 29  2  0
 29 30  1  0
 30 31  1  1
 30 32  1  0
 16  4  1  0
 11  5  1  0
 30  7  1  0
 29 23  1  0
M  END
$$$$
675022
     RDKit          2D

 37 39  0  0  0  0  0  0  0  0999 V2000
   -3.7500   -9.0933    0.0000 C   0  0  0  0  0  0  0  0  0  0  0  0
   -3.0000   -7.7942    0.0000 N   0  0  0  0  0  0  0  0  0  0  0  0
   -3.7500   -6.4952    0.0000 C   0  0  0  0  0  0  0  0  0  0  0  0
   -1.5000   -7.7942    0.0000 C   0  0  0  0  0  0  0  0  0  0  0  0
   -0.7500   -6.4952    0.0000 C   0  0  0  0  0  0  0  0  0  0  0  0
   -1.5000   -5.1962    0.0000 C   0  0  0  0  0  0  0  0  0  0  0  0
   -0.7500   -3.8971    0.0000 C   0  0  0  0  0  0  0  0  0  0  0  0
    0.7500   -3.8971    0.0000 C   0  0  0  0  0  0  0  0  0  0  0  0
    1.5000   -5.1962    0.0000 C   0  0  0  0  0  0  0  0  0  0  0  0
    3.0000   -5.1962    0.0000 O   0  0  0  0  0  0  0  0  0  0  0  0
    0.7500   -6.4952    0.0000 C   0  0  0  0  0  0  0  0  0  0  0  0
    2.2500   -6.4952    0.0000 O   0  0  0  0  0  0  0  0  0  0  0  0
    1.5000   -7.7942    0.0000 C   0  0  0  0  0  0  0  0  0  0  0  0
    3.0000   -7.7942    0.0000 O   0  0  0  0  0  0  0  0  0  0  0  0
    0.7500   -9.0933    0.0000 C   0  0  0  0  0  0  0  0  0  0  0  0
   -0.7500   -9.0933    0.0000 C   0  0  0  0  0  0  0  0  0  0  0  0
   -1.5000  -10.3923    0.0000 O   0  0  0  0  0  0  0  0  0  0  0  0
    1.5000  -10.3923    0.0000 C   0  0  0  0  0  0  0  0  0  0  0  0
    3.0000  -10.3923    0.0000 O   0  0  0  0  0  0  0  0  0  0  0  0
    0.7500  -11.6913    0.0000 N   0  0  0  0  0  0  0  0  0  0  0  0
    1.5000   -2.5981    0.0000 C   0  0  0  0  0  0  0  0  0  0  0  0
    3.0000   -2.5981    0.0000 O   0  0  0  0  0  0  0  0  0  0  0  0
    0.7500   -1.2990    0.0000 C   0  0  0  0  0  0  0  0  0  0  0  0
    1.5000    0.0000    0.0000 C   0  0  0  0  0  0  0  0  0  0  0  0
    3.0000    0.0000    0.0000 O   0  0  0  0  0  0  0  0  0  0  0  0
    0.7500    1.2990    0.0000 C   0  0  0  0  0  0  0  0  0  0  0  0
   -0.7500    1.2990    0.0000 C   0  0  0  0  0  0  0  0  0  0  0  0
   -1.5000    0.0000    0.0000 C   0  0  0  0  0  0  0  0  0  0  0  0
   -0.7500   -1.2990    0.0000 C   0  0  0  0  0  0  0  0  0  0  0  0
   -1.5000   -2.5981    0.0000 C   0  0  0  0  0  0  0  0  0  0  0  0
   -2.6491   -3.5623    0.0000 C   0  0  0  0  0  0  0  0  0  0  0  0
   -2.6491   -1.6339    0.0000 O   0  0  0  0  0  0  0  0  0  0  0  0
    4.0000    0.0000    0.0000 O   0  0  0  0  0  0  0  0  0  0  0  0
    5.2990    0.7500    0.0000 P   0  0  0  0  0  0  0  0  0  0  0  0
    6.5981    1.5000    0.0000 O   0  0  0  0  0  0  0  0  0  0  0  0
    4.5490    2.0490    0.0000 O   0  0  0  0  0  0  0  0  0  0  0  0
    6.0490   -0.5490    0.0000 O   0  0  0  0  0  0  0  0  0  0  0  0
  1  2  1  0
  2  3  1  0
  4  2  1  1
  4  5  1  0
  5  6  1  6
  7  6  1  6
  7  8  1  0
  8  9  2  0
  9 10  1  0
  9 11  1  0
 11 12  1  1
 11 13  1  0
 13 14  2  0
 13 15  1  0
 15 16  2  0
 16 17  1  0
 15 18  1  0
 18 19  2  0
 18 20  1  0
  8 21  1  0
 21 22  2  0
 21 23  1  0
 23 24  2  0
 24 25  1  0
 24 26  1  0
 26 27  2  0
 27 28  1  0
 28 29  2  0
 29 30  1  0
 30 31  1  1
 30 32  1  0
 33 34  1  0
 34 35  2  0
 34 36  1  0
 34 37  1  0
 16  4  1  0
 11  5  1  0
 30  7  1  0
 29 23  1  0
M  END
$$$$
421082
     RDKit          2D

 32 35  0  0  0  0  0  0  0  0999 V2000
    3.7500   -9.0933    0.0000 C   0  0  0  0  0  0  0  0  0  0  0  0
    3.0000   -7.7942    0.0000 N   0  0  0  0  0  0  0  0  0  0  0  0
    3.7500   -6.4952    0.0000 C   0  0  0  0  0  0  0  0  0  0  0  0
    1.5000   -7.7942    0.0000 C   0  0  0  0  0  0  0  0  0  0  0  0
    0.7500   -6.4952    0.0000 C   0  0  0  0  0  0  0  0  0  0  0  0
    1.5000   -5.1962    0.0000 C   0  0  0  0  0  0  0  0  0  0  0  0
    3.0000   -5.1962    0.0000 O   0  0  0  0  0  0  0  0  0  0  0  0
    0.7500   -3.8971    0.0000 C   0  0  0  0  0  0  0  0  0  0  0  0
    1.5000   -2.5981    0.0000 C   0  0  0  0  0  0  0  0  0  0  0  0
    3.0000   -2.5981    0.0000 C   0  0  0  0  0  0  0  0  0  0  0  0
    0.7500   -1.2990    0.0000 C   0  0  0  0  0  0  0  0  0  0  0  0
    1.5000    0.0000    0.0000 C   0  0  0  0  0  0  0  0  0  0  0  0
    0.7500    1.2990    0.0000 C   0  0  0  0  0  0  0  0  0  0  0  0
   -0.7500    1.2990    0.0000 C   0  0  0  0  0  0  0  0  0  0  0  0
   -1.5000    0.0000    0.0000 C   0  0  0  0  0  0  0  0  0  0  0  0
   -3.0000    0.0000    0.0000 O   0  0  0  0  0  0  0  0  0  0  0  0
   -0.7500   -1.2990    0.0000 C   0  0  0  0  0  0  0  0  0  0  0  0
   -1.5000   -2.5981    0.0000 C   0  0  0  0  0  0  0  0  0  0  0  0
   -3.0000   -2.5981    0.0000 O   0  0  0  0  0  0  0  0  0  0  0  0
   -0.7500   -3.8971    0.0000 C   0  0  0  0  0  0  0  0  0  0  0  0
   -1.5000   -5.1962    0.0000 C   0  0  0  0  0  0  0  0  0  0  0  0
   -3.0000   -5.1962    0.0000 O   0  0  0  0  0  0  0  0  0  0  0  0
   -0.7500   -6.4952    0.0000 C   0  0  0  0  0  0  0  0  0  0  0  0
   -2.2500   -6.4952    0.0000 O   0  0  0  0  0  0  0  0  0  0  0  0
   -1.5000   -7.7942    0.0000 C   0  0  0  0  0  0  0  0  0  0  0  0
   -3.0000   -7.7942    0.0000 O   0  0  0  0  0  0  0  0  0  0  0  0
   -0.7500   -9.0933    0.0000 C   0  0  0  0  0  0  0  0  0  0  0  0
    0.7500   -9.0933    0.0000 C   0  0  0  0  0  0  0  0  0  0  0  0
    1.5000  -10.3923    0.0000 O   0  0  0  0  0  0  0  0  0  0  0  0
   -1.5000  -10.3923    0.0000 C   0  0  0  0  0  0  0  0  0  0  0  0
   -0.7500  -11.6913    0.0000 O   0  0  0  0  0  0  0  0  0  0  0  0
   -3.0000  -10.3923    0.0000 N   0  0  0  0  0  0  0  0  0  0  0  0
  1  2  1  0
  2  3  1  0
  4  2  1  6
  5  4  1  1
  5  6  1  0
  6  7  1  6
  6  8  1  0
  8  9  1  1
  9 10  2  0
  9 11  1  0
 11 12  2  0
 12 13  1  0
 13 14  2  0
 14 15  1  0
 15 16  1  0
 15 17  2  0
 17 18  1  0
 18 19  2  0
 18 20  1  0
 20 21  2  0
 21 22  1  0
 21 23  1  0
 23 24  1  6
 23 25  1  0
 25 26  2  0
 25 27  1  0
 27 28  2  0
 28 29  1  0
 27 30  1  0
 30 31  2  0
 30 32  1  0
 28  4  1  0
 23  5  1  0
 20  8  1  0
 17 11  1  0
M  END
$$$$
421157
     RDKit          2D

 33 36  0  0  0  0  0  0  0  0999 V2000
   -3.7500   -9.0933    0.0000 C   0  0  0  0  0  0  0  0  0  0  0  0
   -3.0000   -7.7942    0.0000 N   0  0  0  0  0  0  0  0  0  0  0  0
   -3.7500   -6.4952    0.0000 C   0  0  0  0  0  0  0  0  0  0  0  0
   -1.5000   -7.7942    0.0000 C   0  0  0  0  0  0  0  0  0  0  0  0
   -0.7500   -6.4952    0.0000 C   0  0  0  0  0  0  0  0  0  0  0  0
   -1.5000   -5.1962    0.0000 C   0  0  0  0  0  0  0  0  0  0  0  0
   -3.0000   -5.1962    0.0000 O   0  0  0  0  0  0  0  0  0  0  0  0
   -0.7500   -3.8971    0.0000 C   0  0  0  0  0  0  0  0  0  0  0  0
    0.7500   -3.8971    0.0000 C   0  0  0  0  0  0  0  0  0  0  0  0
    1.5000   -5.1962    0.0000 C   0  0  0  0  0  0  0  0  0  0  0  0
    3.0000   -5.1962    0.0000 O   0  0  0  0  0  0  0  0  0  0  0  0
    0.7500   -6.4952    0.0000 C   0  0  0  0  0  0  0  0  0  0  0  0
    2.2500   -6.4952    0.0000 O   0  0  0  0  0  0  0  0  0  0  0  0
    1.5000   -7.7942    0.0000 C   0  0  0  0  0  0  0  0  0  0  0  0
    3.0000   -7.7942    0.0000 O   0  0  0  0  0  0  0  0  0  0  0  0
    0.7500   -9.0933    0.0000 C   0  0  0  0  0  0  0  0  0  0  0  0
   -0.7500   -9.0933    0.0000 C   0  0  0  0  0  0  0  0  0  0  0  0
   -1.5000  -10.3923    0.0000 O   0  0  0  0  0  0  0  0  0  0  0  0
    1.5000  -10.3923    0.0000 C   0  0  0  0  0  0  0  0  0  0  0  0
    3.0000  -10.3923    0.0000 O   0  0  0  0  0  0  0  0  0  0  0  0
    0.7500  -11.6913    0.0000 N   0  0  0  0  0  0  0  0  0  0  0  0
    1.5000   -2.5981    0.0000 C   0  0  0  0  0  0  0  0  0  0  0  0
    3.0000   -2.5981    0.0000 O   0  0  0  0  0  0  0  0  0  0  0  0
    0.7500   -1.2990    0.0000 C   0  0  0  0  0  0  0  0  0  0  0  0
    1.5000    0.0000    0.0000 C   0  0  0  0  0  0  0  0  0  0  0  0
    3.0000    0.0000    0.0000 O   0  0  0  0  0  0  0  0  0  0  0  0
    0.7500    1.2990    0.0000 C   0  0  0  0  0  0  0  0  0  0  0  0
   -0.7500    1.2990    0.0000 C   0  0  0  0  0  0  0  0  0  0  0  0
   -1.5000    0.0000    0.0000 C   0  0  0  0  0  0  0  0  0  0  0  0
   -0.7500   -1.2990    0.0000 C   0  0  0  0  0  0  0  0  0  0  0  0
   -1.5000   -2.5981    0.0000 C   0  0  0  0  0  0  0  0  0  0  0  0
   -2.6491   -3.5623    0.0000 C   0  0  0  0  0  0  0  0  0  0  0  0
   -2.6491   -1.6339    0.0000 O   0  0  0  0  0  0  0  0  0  0  0  0
  1  2  1  0
  2  3  1  0
  4  2  1  1
  5  4  1  6
  5  6  1  0
  6  7  1  1
  6  8  1  0
  8  9  1  6
  9 10  2  0
 10 11  1  0
 10 12  1  0
 12 13  1  1
 12 14  1  0
 14 15  2  0
 14 16  1  0
 16 17  2  0
 17 18  1  0
 16 19  1  0
 19 20  2  0
 19 21  1  0
  9 22  1  0
 22 23  2  0
 22 24  1  0
 24 25  2  0
 25 26  1  0
 25 27  1  0
 27 28  2  0
 28 29  1  0
 29 30  2  0
 30 31  1  0
 31 32  1  1
 31 33  1  0
 17  4  1  0
 12  5  1  0
 31  8  1  0
 30 24  1  0
M  END
$$$$
675194
     RDKit          2D

 19 19  0  0  0  0  0  0  0  0999 V2000
    6.0000   -2.5981    0.0000 C   0  0  0  0  0  0  0  0  0  0  0  0
    5.2500   -1.2990    0.0000 N   0  0  0  0  0  0  0  0  0  0  0  0
    6.0000    0.0000    0.0000 C   0  0  0  0  0  0  0  0  0  0  0  0
    3.7500   -1.2990    0.0000 C   0  0  0  0  0  0  0  0  0  0  0  0
    3.0000    0.0000    0.0000 N   0  0  0  0  0  0  0  0  0  0  0  0
    1.5000    0.0000    0.0000 C   0  0  0  0  0  0  0  0  0  0  0  0
    0.7500   -1.2990    0.0000 C   0  0  0  0  0  0  0  0  0  0  0  0
    1.5000   -2.5981    0.0000 I   0  0  0  0  0  0  0  0  0  0  0  0
   -0.7500   -1.2990    0.0000 C   0  0  0  0  0  0  0  0  0  0  0  0
   -1.5000    0.0000    0.0000 C   0  0  0  0  0  0  0  0  0  0  0  0
   -3.0000    0.0000    0.0000 I   0  0  0  0  0  0  0  0  0  0  0  0
   -0.7500    1.2990    0.0000 C   0  0  0  0  0  0  0  0  0  0  0  0
   -1.5000    2.5981    0.0000 C   0  0  0  0  0  0  0  0  0  0  0  0
   -0.7500    3.8971    0.0000 C   0  0  0  0  0  0  0  0  0  0  0  0
   -1.5000    5.1962    0.0000 C   0  0  0  0  0  0  0  0  0  0  0  0
   -3.0000    5.1962    0.0000 O   0  0  0  0  0  0  0  0  0  0  0  0
   -0.7500    6.4952    0.0000 O   0  0  0  0  0  0  0  0  0  0  0  0
    0.7500    1.2990    0.0000 C   0  0  0  0  0  0  0  0  0  0  0  0
    1.5000    2.5981    0.0000 I   0  0  0  0  0  0  0  0  0  0  0  0
  1  2  1  0
  2  3  1  0
  2  4  1  0
  4  5  2  0
  5  6  1  0
  6  7  2  0
  7  8  1  0
  7  9  1  0
  9 10  2  0
 10 11  1  0
 10 12  1  0
 12 13  1  0
 13 14  1  0
 14 15  1  0
 15 16  2  0
 15 17  1  0
 12 18  2  0
 18 19  1  0
 18  6  1  0
M  END
$$$$
489525
     RDKit          2D

 31 34  0  0  0  0  0  0  0  0999 V2000
    0.7500   -3.8971    0.0000 C   0  0  0  0  0  0  0  0  0  0  0  0
    1.5000   -2.5981    0.0000 N   0  0  0  0  0  0  0  0  0  0  0  0
    0.7500   -1.2990    0.0000 C   0  0  0  0  0  0  0  0  0  0  0  0
    1.5000    0.0000    0.0000 C   0  0  0  0  0  0  0  0  0  0  0  0
    0.7500    1.2990    0.0000 C   0  0  0  0  0  0  0  0  0  0  0  0
   -0.7500    1.2990    0.0000 C   0  0  0  0  0  0  0  0  0  0  0  0
   -1.7537    2.4138    0.0000 C   0  0  0  0  0  0  0  0  0  0  0  0
   -1.4418    3.8810    0.0000 C   0  0  0  0  0  0  0  0  0  0  0  0
   -3.1240    1.8037    0.0000 N   0  0  0  0  0  0  0  0  0  0  0  0
   -4.4231    2.5537    0.0000 C   0  0  0  0  0  0  0  0  0  0  0  0
   -2.9672    0.3119    0.0000 N   0  0  0  0  0  0  0  0  0  0  0  0
   -1.5000    0.0000    0.0000 C   0  0  0  0  0  0  0  0  0  0  0  0
   -0.7500   -1.2990    0.0000 C   0  0  0  0  0  0  0  0  0  0  0  0
    3.0000   -2.5981    0.0000 C   0  0  0  0  0  0  0  0  0  0  0  0
    3.7500   -3.8971    0.0000 C   0  0  0  0  0  0  0  0  0  0  0  0
    5.2500   -3.8971    0.0000 C   0  0  0  0  0  0  0  0  0  0  0  0
    6.0000   -2.5981    0.0000 N   0  0  0  0  0  0  0  0  0  0  0  0
    5.2500   -1.2990    0.0000 C   0  0  0  0  0  0  0  0  0  0  0  0
    6.0000   -0.0000    0.0000 N   0  0  0  0  0  0  0  0  0  0  0  0
    7.5000   -0.0000    0.0000 C   0  0  0  0  0  0  0  0  0  0  0  0
    8.2500   -1.2990    0.0000 C   0  0  0  0  0  0  0  0  0  0  0  0
    9.7500   -1.2990    0.0000 C   0  0  0  0  0  0  0  0  0  0  0  0
   10.5000   -0.0000    0.0000 C   0  0  0  0  0  0  0  0  0  0  0  0
   12.0000   -0.0000    0.0000 C   0  0  0  0  0  0  0  0  0  0  0  0
    9.7500    1.2990    0.0000 C   0  0  0  0  0  0  0  0  0  0  0  0
    8.2500    1.2990    0.0000 C   0  0  0  0  0  0  0  0  0  0  0  0
   10.5000    2.5981    0.0000 S   0  0  0  0  0  0  0  0  0  0  0  0
    9.2010    3.3481    0.0000 O   0  0  0  0  0  0  0  0  0  0  0  0
   11.7990    1.8481    0.0000 O   0  0  0  0  0  0  0  0  0  0  0  0
   11.2500    3.8971    0.0000 N   0  0  0  0  0  0  0  0  0  0  0  0
    3.7500   -1.2990    0.0000 N   0  0  0  0  0  0  0  0  0  0  0  0
  1  2  1  0
  2  3  1  0
  3  4  1  0
  4  5  2  0
  5  6  1  0
  6  7  2  0
  7  8  1  0
  7  9  1  0
  9 10  1  0
  9 11  1  0
 11 12  2  0
 12 13  1  0
  2 14  1  0
 14 15  2  0
 15 16  1  0
 16 17  2  0
 17 18  1  0
 18 19  1  0
 19 20  1  0
 20 21  2  0
 21 22  1  0
 22 23  2  0
 23 24  1  0
 23 25  1  0
 25 26  2  0
 25 27  1  0
 27 28  2  0
 27 29  2  0
 27 30  1  0
 18 31  2  0
 13  3  2  0
 12  6  1  0
 31 14  1  0
 26 20  1  0
M  END
$$$$
28477
     RDKit          2D

 12 12  0  0  0  0  0  0  0  0999 V2000
    5.2500   -1.2990    0.0000 C   0  0  0  0  0  0  0  0  0  0  0  0
    3.7500   -1.2990    0.0000 N   0  0  0  0  0  0  0  0  0  0  0  0
    3.0000   -2.5981    0.0000 C   0  0  0  0  0  0  0  0  0  0  0  0
    3.7500   -3.8971    0.0000 C   0  0  0  0  0  0  0  0  0  0  0  0
    4.5000   -5.1962    0.0000 C   0  0  0  0  0  0  0  0  0  0  0  0
    3.0000    0.0000    0.0000 C   0  0  0  0  0  0  0  0  0  0  0  0
    1.5000    0.0000    0.0000 C   0  0  0  0  0  0  0  0  0  0  0  0
    0.7500   -1.2990    0.0000 C   0  0  0  0  0  0  0  0  0  0  0  0
   -0.7500   -1.2990    0.0000 C   0  0  0  0  0  0  0  0  0  0  0  0
   -1.5000    0.0000    0.0000 C   0  0  0  0  0  0  0  0  0  0  0  0
   -0.7500    1.2990    0.0000 C   0  0  0  0  0  0  0  0  0  0  0  0
    0.7500    1.2990    0.0000 C   0  0  0  0  0  0  0  0  0  0  0  0
  1  2  1  0
  2  3  1  0
  3  4  1  0
  4  5  3  0
  2  6  1  0
  6  7  1  0
  7  8  2  0
  8  9  1  0
  9 10  2  0
 10 11  1  0
 11 12  2  0
 12  7  1  0
M  END
$$$$
49931
     RDKit          2D

 33 35  0  0  0  0  0  0  0  0999 V2000
    1.5000   -5.1962    0.0000 C   0  0  0  0  0  0  0  0  0  0  0  0
    0.7500   -3.8971    0.0000 N   0  0  0  0  0  0  0  0  0  0  0  0
    1.5000   -2.5981    0.0000 C   0  0  0  0  0  0  0  0  0  0  0  0
    0.7500   -1.2990    0.0000 C   0  0  0  0  0  0  0  0  0  0  0  0
    1.5000    0.0000    0.0000 C   0  0  0  0  0  0  0  0  0  0  0  0
    0.7500    1.2990    0.0000 N   0  0  0  0  0  0  0  0  0  0  0  0
   -0.7500    1.2990    0.0000 C   0  0  0  0  0  0  0  0  0  0  0  0
   -1.5000    2.5981    0.0000 N   0  0  0  0  0  0  0  0  0  0  0  0
   -3.0000    2.5981    0.0000 C   0  0  0  0  0  0  0  0  0  0  0  0
   -3.7500    3.8971    0.0000 N   0  0  0  0  0  0  0  0  0  0  0  0
   -3.7500    1.2990    0.0000 N   0  0  0  0  0  0  0  0  0  0  0  0
   -3.0000    0.0000    0.0000 C   0  0  0  0  0  0  0  0  0  0  0  0
   -3.7500   -1.2990    0.0000 N   0  0  0  0  0  0  0  0  0  0  0  0
   -1.5000    0.0000    0.0000 C   0  0  0  0  0  0  0  0  0  0  0  0
   -0.7500   -1.2990    0.0000 N   0  0  0  0  0  0  0  0  0  0  0  0
   -0.7500   -3.8971    0.0000 C   0  0  0  0  0  0  0  0  0  0  0  0
   -1.5000   -2.5981    0.0000 C   0  0  0  0  0  0  0  0  0  0  0  0
   -3.0000   -2.5981    0.0000 C   0  0  0  0  0  0  0  0  0  0  0  0
   -3.7500   -3.8971    0.0000 C   0  0  0  0  0  0  0  0  0  0  0  0
   -3.0000   -5.1962    0.0000 C   0  0  0  0  0  0  0  0  0  0  0  0
   -1.5000   -5.1962    0.0000 C   0  0  0  0  0  0  0  0  0  0  0  0
   -5.2500   -3.8971    0.0000 C   0  0  0  0  0  0  0  0  0  0  0  0
   -6.0000   -2.5981    0.0000 O   0  0  0  0  0  0  0  0  0  0  0  0
   -6.0000   -5.1962    0.0000 N   0  0  0  0  0  0  0  0  0  0  0  0
   -7.5000   -5.1962    0.0000 C   0  0  0  0  0  0  0  0  0  0  0  0
   -8.2500   -6.4952    0.0000 C   0  0  0  0  0  0  0  0  0  0  0  0
   -9.7500   -6.4952    0.0000 C   0  0  0  0  0  0  0  0  0  0  0  0
  -10.5000   -7.7942    0.0000 C   0  0  0  0  0  0  0  0  0  0  0  0
   -9.7500   -9.0933    0.0000 O   0  0  0  0  0  0  0  0  0  0  0  0
  -12.0000   -7.7942    0.0000 O   0  0  0  0  0  0  0  0  0  0  0  0
   -8.2500   -3.8971    0.0000 C   0  0  0  0  0  0  0  0  0  0  0  0
   -7.5000   -2.5981    0.0000 O   0  0  0  0  0  0  0  0  0  0  0  0
   -9.7500   -3.8971    0.0000 O   0  0  0  0  0  0  0  0  0  0  0  0
  1  2  1  0
  2  3  1  0
  3  4  1  0
  4  5  2  0
  5  6  1  0
  6  7  2  0
  7  8  1  0
  8  9  2  0
  9 10  1  0
  9 11  1  0
 11 12  2  0
 12 13  1  0
 12 14  1  0
 14 15  2  0
  2 16  1  0
 16 17  2  0
 17 18  1  0
 18 19  2  0
 19 20  1  0
 20 21  2  0
 19 22  1  0
 22 23  2  0
 22 24  1  0
 24 25  1  0
 25 26  1  1
 26 27  1  0
 27 28  1  0
 28 29  2  0
 28 30  1  0
 25 31  1  0
 31 32  2  0
 31 33  1  0
 15  4  1  0
 14  7  1  0
 21 16  1  0
M  END
$$$$
20027
     RDKit          2D

 25 27  0  0  0  0  0  0  0  0999 V2000
    1.5000   -7.7942    0.0000 C   0  0  0  0  0  0  0  0  0  0  0  0
    0.7500   -6.4952    0.0000 N   0  0  0  0  0  0  0  0  0  0  0  0
    1.5000   -5.1962    0.0000 C   0  0  0  0  0  0  0  0  0  0  0  0
    0.7500   -3.8971    0.0000 C   0  0  0  0  0  0  0  0  0  0  0  0
    1.5000   -2.5981    0.0000 O   0  0  0  0  0  0  0  0  0  0  0  0
    0.7500   -1.2990    0.0000 C   0  0  0  0  0  0  0  0  0  0  0  0
    1.5000    0.0000    0.0000 C   0  0  0  0  0  0  0  0  0  0  0  0
    0.7500    1.2990    0.0000 C   0  0  0  0  0  0  0  0  0  0  0  0
   -0.7500    1.2990    0.0000 C   0  0  0  0  0  0  0  0  0  0  0  0
   -1.5000    2.5981    0.0000 C   0  0  0  0  0  0  0  0  0  0  0  0
   -0.7500    3.8971    0.0000 C   0  0  0  0  0  0  0  0  0  0  0  0
   -1.3601    5.2674    0.0000 S   0  0  0  0  0  0  0  0  0  0  0  0
   -0.2454    6.2711    0.0000 C   0  0  0  0  0  0  0  0  0  0  0  0
   -0.4022    7.7629    0.0000 O   0  0  0  0  0  0  0  0  0  0  0  0
    1.0537    5.5211    0.0000 N   0  0  0  0  0  0  0  0  0  0  0  0
    0.7418    4.0539    0.0000 C   0  0  0  0  0  0  0  0  0  0  0  0
    1.7455    2.9392    0.0000 O   0  0  0  0  0  0  0  0  0  0  0  0
   -1.5000    0.0000    0.0000 C   0  0  0  0  0  0  0  0  0  0  0  0
   -0.7500   -1.2990    0.0000 C   0  0  0  0  0  0  0  0  0  0  0  0
   -0.7500   -6.4952    0.0000 C   0  0  0  0  0  0  0  0  0  0  0  0
   -1.5000   -5.1962    0.0000 C   0  0  0  0  0  0  0  0  0  0  0  0
   -3.0000   -5.1962    0.0000 C   0  0  0  0  0  0  0  0  0  0  0  0
   -3.7500   -6.4952    0.0000 C   0  0  0  0  0  0  0  0  0  0  0  0
   -3.0000   -7.7942    0.0000 C   0  0  0  0  0  0  0  0  0  0  0  0
   -1.5000   -7.7942    0.0000 N   0  0  0  0  0  0  0  0  0  0  0  0
  1  2  1  0
  2  3  1  0
  3  4  1  0
  4  5  1  0
  5  6  1  0
  6  7  2  0
  7  8  1  0
  8  9  2  0
  9 10  1  0
 10 11  1  0
 11 12  1  0
 12 13  1  0
 13 14  2  0
 13 15  1  0
 15 16  1  0
 16 17  2  0
  9 18  1  0
 18 19  2  0
  2 20  1  0
 20 21  2  0
 21 22  1  0
 22 23  2  0
 23 24  1  0
 24 25  2  0
 19  6  1  0
 16 11  1  0
 25 20  1  0
M  END
$$$$
62701
     RDKit          2D

 33 34  0  0  0  0  0  0  0  0999 V2000
    1.5000   -7.7942    0.0000 C   0  0  0  0  0  0  0  0  0  0  0  0
    0.7500   -6.4952    0.0000 N   0  0  0  0  0  0  0  0  0  0  0  0
    1.5000   -5.1962    0.0000 C   0  0  0  0  0  0  0  0  0  0  0  0
    0.7500   -3.8971    0.0000 C   0  0  0  0  0  0  0  0  0  0  0  0
    1.5000   -2.5981    0.0000 O   0  0  0  0  0  0  0  0  0  0  0  0
    0.7500   -1.2990    0.0000 C   0  0  0  0  0  0  0  0  0  0  0  0
    1.5000    0.0000    0.0000 C   0  0  0  0  0  0  0  0  0  0  0  0
    0.7500    1.2990    0.0000 C   0  0  0  0  0  0  0  0  0  0  0  0
   -0.7500    1.2990    0.0000 C   0  0  0  0  0  0  0  0  0  0  0  0
   -1.5000    2.5981    0.0000 C   0  0  0  0  0  0  0  0  0  0  0  0
   -0.7500    3.8971    0.0000 C   0  0  0  0  0  0  0  0  0  0  0  0
   -1.3601    5.2674    0.0000 S   0  0  0  0  0  0  0  0  0  0  0  0
   -0.2454    6.2711    0.0000 C   0  0  0  0  0  0  0  0  0  0  0  0
   -0.4022    7.7629    0.0000 O   0  0  0  0  0  0  0  0  0  0  0  0
    1.0537    5.5211    0.0000 N   0  0  0  0  0  0  0  0  0  0  0  0
    0.7418    4.0539    0.0000 C   0  0  0  0  0  0  0  0  0  0  0  0
    1.7455    2.9392    0.0000 O   0  0  0  0  0  0  0  0  0  0  0  0
   -1.5000    0.0000    0.0000 C   0  0  0  0  0  0  0  0  0  0  0  0
   -0.7500   -1.2990    0.0000 C   0  0  0  0  0  0  0  0  0  0  0  0
   -0.7500   -6.4952    0.0000 C   0  0  0  0  0  0  0  0  0  0  0  0
   -1.5000   -5.1962    0.0000 C   0  0  0  0  0  0  0  0  0  0  0  0
   -3.0000   -5.1962    0.0000 C   0  0  0  0  0  0  0  0  0  0  0  0
   -3.7500   -6.4952    0.0000 C   0  0  0  0  0  0  0  0  0  0  0  0
   -3.0000   -7.7942    0.0000 C   0  0  0  0  0  0  0  0  0  0  0  0
   -1.5000   -7.7942    0.0000 N   0  0  0  0  0  0  0  0  0  0  0  0
    2.7455   -1.2990    0.0000 O   0  0  0  0  0  0  0  0  0  0  0  0
    4.2455   -1.2990    0.0000 C   0  0  0  0  0  0  0  0  0  0  0  0
    4.9955   -2.5981    0.0000 O   0  0  0  0  0  0  0  0  0  0  0  0
    4.9955    0.0000    0.0000 C   0  0  0  0  0  0  0  0  0  0  0  0
    6.4955    0.0000    0.0000 C   0  0  0  0  0  0  0  0  0  0  0  0
    7.2455   -1.2990    0.0000 C   0  0  0  0  0  0  0  0  0  0  0  0
    6.4955   -2.5981    0.0000 O   0  0  0  0  0  0  0  0  0  0  0  0
    8.7455   -1.2990    0.0000 O   0  0  0  0  0  0  0  0  0  0  0  0
  1  2  1  0
  2  3  1  0
  3  4  1  0
  4  5  1  0
  5  6  1  0
  6  7  2  0
  7  8  1  0
  8  9  2  0
  9 10  1  0
 10 11  1  0
 11 12  1  0
 12 13  1  0
 13 14  2  0
 13 15  1  0
 15 16  1  0
 16 17  2  0
  9 18  1  0
 18 19  2  0
  2 20  1  0
 20 21  2  0
 21 22  1  0
 22 23  2  0
 23 24  1  0
 24 25  2  0
 26 27  1  0
 27 28  2  0
 27 29  1  0
 29 30  2  0
 30 31  1  0
 31 32  2  0
 31 33  1  0
 19  6  1  0
 16 11  1  0
 25 20  1  0
M  END
$$$$
5638
     RDKit          2D

 29 30  0  0  0  0  0  0  0  0999 V2000
    1.5000   -7.7942    0.0000 C   0  0  0  0  0  0  0  0  0  0  0  0
    0.7500   -6.4952    0.0000 N   0  0  0  0  0  0  0  0  0  0  0  0
    1.5000   -5.1962    0.0000 C   0  0  0  0  0  0  0  0  0  0  0  0
    0.7500   -3.8971    0.0000 C   0  0  0  0  0  0  0  0  0  0  0  0
    1.5000   -2.5981    0.0000 O   0  0  0  0  0  0  0  0  0  0  0  0
    0.7500   -1.2990    0.0000 C   0  0  0  0  0  0  0  0  0  0  0  0
    1.5000    0.0000    0.0000 C   0  0  0  0  0  0  0  0  0  0  0  0
    0.7500    1.2990    0.0000 C   0  0  0  0  0  0  0  0  0  0  0  0
   -0.7500    1.2990    0.0000 C   0  0  0  0  0  0  0  0  0  0  0  0
   -1.5000    2.5981    0.0000 N   0  0  0  0  0  0  0  0  0  0  0  0
   -0.7500    3.8971    0.0000 S   0  0  0  0  0  0  0  0  0  0  0  0
    0.5490    3.1471    0.0000 O   0  0  0  0  0  0  0  0  0  0  0  0
   -2.0490    4.6471    0.0000 O   0  0  0  0  0  0  0  0  0  0  0  0
    0.0000    5.1962    0.0000 C   0  0  0  0  0  0  0  0  0  0  0  0
   -1.5000    0.0000    0.0000 C   0  0  0  0  0  0  0  0  0  0  0  0
   -0.7500   -1.2990    0.0000 C   0  0  0  0  0  0  0  0  0  0  0  0
   -0.7500   -6.4952    0.0000 C   0  0  0  0  0  0  0  0  0  0  0  0
   -1.5000   -7.7942    0.0000 C   0  0  0  0  0  0  0  0  0  0  0  0
   -3.0000   -7.7942    0.0000 C   0  0  0  0  0  0  0  0  0  0  0  0
   -3.7500   -6.4952    0.0000 C   0  0  0  0  0  0  0  0  0  0  0  0
   -5.2500   -6.4952    0.0000 C   0  0  0  0  0  0  0  0  0  0  0  0
   -6.0000   -7.7942    0.0000 C   0  0  0  0  0  0  0  0  0  0  0  0
   -7.5000   -7.7942    0.0000 N   0  0  0  0  0  0  0  0  0  0  0  0
   -8.2500   -6.4952    0.0000 S   0  0  0  0  0  0  0  0  0  0  0  0
   -6.9510   -5.7452    0.0000 O   0  0  0  0  0  0  0  0  0  0  0  0
   -9.5490   -7.2452    0.0000 O   0  0  0  0  0  0  0  0  0  0  0  0
   -9.0000   -5.1962    0.0000 C   0  0  0  0  0  0  0  0  0  0  0  0
   -5.2500   -9.0933    0.0000 C   0  0  0  0  0  0  0  0  0  0  0  0
   -3.7500   -9.0933    0.0000 C   0  0  0  0  0  0  0  0  0  0  0  0
  1  2  1  0
  2  3  1  0
  3  4  1  0
  4  5  1  0
  5  6  1  0
  6  7  2  0
  7  8  1  0
  8  9  2  0
  9 10  1  0
 10 11  1  0
 11 12  2  0
 11 13  2  0
 11 14  1  0
  9 15  1  0
 15 16  2  0
  2 17  1  0
 17 18  1  0
 18 19  1  0
 19 20  2  0
 20 21  1  0
 21 22  2  0
 22 23  1  0
 23 24  1  0
 24 25  2  0
 24 26  2  0
 24 27  1  0
 22 28  1  0
 28 29  2  0
 16  6  1  0
 29 19  1  0
M  END
$$$$
56831
     RDKit          2D

 22 23  0  0  0  0  0  0  0  0999 V2000
   -5.2500   -3.8971    0.0000 C   0  0  0  0  0  0  0  0  0  0  0  0
   -3.7500   -3.8971    0.0000 N   0  0  0  0  0  0  0  0  0  0  0  0
   -3.0000   -5.1962    0.0000 C   0  0  0  0  0  0  0  0  0  0  0  0
   -3.7500   -6.4952    0.0000 C   0  0  0  0  0  0  0  0  0  0  0  0
   -3.0000   -7.7942    0.0000 C   0  0  0  0  0  0  0  0  0  0  0  0
   -3.7500   -9.0933    0.0000 C   0  0  0  0  0  0  0  0  0  0  0  0
   -4.5000  -10.3923    0.0000 C   0  0  0  0  0  0  0  0  0  0  0  0
   -5.2500  -11.6913    0.0000 C   0  0  0  0  0  0  0  0  0  0  0  0
   -3.9510  -12.4413    0.0000 C   0  0  0  0  0  0  0  0  0  0  0  0
   -6.5490  -10.9413    0.0000 C   0  0  0  0  0  0  0  0  0  0  0  0
   -6.0000  -12.9904    0.0000 C   0  0  0  0  0  0  0  0  0  0  0  0
   -3.0000   -2.5981    0.0000 C   0  0  0  0  0  0  0  0  0  0  0  0
   -1.5000   -2.5981    0.0000 C   0  0  0  0  0  0  0  0  0  0  0  0
   -0.7500   -3.8971    0.0000 C   0  0  0  0  0  0  0  0  0  0  0  0
    0.7500   -3.8971    0.0000 C   0  0  0  0  0  0  0  0  0  0  0  0
    1.5000   -2.5981    0.0000 C   0  0  0  0  0  0  0  0  0  0  0  0
    0.7500   -1.2990    0.0000 C   0  0  0  0  0  0  0  0  0  0  0  0
    1.5000    0.0000    0.0000 C   0  0  0  0  0  0  0  0  0  0  0  0
    0.7500    1.2990    0.0000 C   0  0  0  0  0  0  0  0  0  0  0  0
   -0.7500    1.2990    0.0000 C   0  0  0  0  0  0  0  0  0  0  0  0
   -1.5000    0.0000    0.0000 C   0  0  0  0  0  0  0  0  0  0  0  0
   -0.7500   -1.2990    0.0000 C   0  0  0  0  0  0  0  0  0  0  0  0
  1  2  1  0
  2  3  1  0
  3  4  1  0
  4  5  2  0
  5  6  1  0
  6  7  3  0
  7  8  1  0
  8  9  1  0
  8 10  1  0
  8 11  1  0
  2 12  1  0
 12 13  1  0
 13 14  2  0
 14 15  1  0
 15 16  2  0
 16 17  1  0
 17 18  2  0
 18 19  1  0
 19 20  2  0
 20 21  1  0
 21 22  2  0
 22 13  1  0
 22 17  1  0
M  END
$$$$
11968
     RDKit          2D

 23 25  0  0  0  0  0  0  0  0999 V2000
   -1.5000   -5.1962    0.0000 C   0  0  0  0  0  0  0  0  0  0  0  0
   -0.7500   -3.8971    0.0000 N   0  0  0  0  0  0  0  0  0  0  0  0
    0.7500   -3.8971    0.0000 C   0  0  0  0  0  0  0  0  0  0  0  0
    1.5000   -2.5981    0.0000 C   0  0  0  0  0  0  0  0  0  0  0  0
    3.0000   -2.5981    0.0000 O   0  0  0  0  0  0  0  0  0  0  0  0
    0.7500   -1.2990    0.0000 C   0  0  0  0  0  0  0  0  0  0  0  0
    1.5000    0.0000    0.0000 C   0  0  0  0  0  0  0  0  0  0  0  0
    0.7500    1.2990    0.0000 C   0  0  0  0  0  0  0  0  0  0  0  0
   -0.7500    1.2990    0.0000 C   0  0  0  0  0  0  0  0  0  0  0  0
   -1.5000    0.0000    0.0000 C   0  0  0  0  0  0  0  0  0  0  0  0
   -0.7500   -1.2990    0.0000 C   0  0  0  0  0  0  0  0  0  0  0  0
   -1.5000   -2.5981    0.0000 S   0  0  0  0  0  0  0  0  0  0  0  0
   -2.6491   -1.6339    0.0000 O   0  0  0  0  0  0  0  0  0  0  0  0
   -2.6491   -3.5623    0.0000 O   0  0  0  0  0  0  0  0  0  0  0  0
    1.5000   -5.1962    0.0000 C   0  0  0  0  0  0  0  0  0  0  0  0
    3.0000   -5.1962    0.0000 O   0  0  0  0  0  0  0  0  0  0  0  0
    0.7500   -6.4952    0.0000 N   0  0  0  0  0  0  0  0  0  0  0  0
    1.5000   -7.7942    0.0000 C   0  0  0  0  0  0  0  0  0  0  0  0
    0.7500   -9.0933    0.0000 C   0  0  0  0  0  0  0  0  0  0  0  0
    1.5000  -10.3923    0.0000 C   0  0  0  0  0  0  0  0  0  0  0  0
    3.0000  -10.3923    0.0000 C   0  0  0  0  0  0  0  0  0  0  0  0
    3.7500   -9.0933    0.0000 C   0  0  0  0  0  0  0  0  0  0  0  0
    3.0000   -7.7942    0.0000 N   0  0  0  0  0  0  0  0  0  0  0  0
  1  2  1  0
  2  3  1  0
  3  4  2  0
  4  5  1  0
  4  6  1  0
  6  7  2  0
  7  8  1  0
  8  9  2  0
  9 10  1  0
 10 11  2  0
 11 12  1  0
 12 13  2  0
 12 14  2  0
  3 15  1  0
 15 16  2  0
 15 17  1  0
 17 18  1  0
 18 19  2  0
 19 20  1  0
 20 21  2  0
 21 22  1  0
 22 23  2  0
 12  2  1  0
 11  6  1  0
 23 18  1  0
M  END
$$$$
20496
     RDKit          2D

 23 25  0  0  0  0  0  0  0  0999 V2000
   -1.5000   -5.1962    0.0000 C   0  0  0  0  0  0  0  0  0  0  0  0
   -0.7500   -3.8971    0.0000 N   0  0  0  0  0  0  0  0  0  0  0  0
    0.7500   -3.8971    0.0000 C   0  0  0  0  0  0  0  0  0  0  0  0
    1.5000   -2.5981    0.0000 C   0  0  0  0  0  0  0  0  0  0  0  0
    3.0000   -2.5981    0.0000 O   0  0  0  0  0  0  0  0  0  0  0  0
    0.7500   -1.2990    0.0000 C   0  0  0  0  0  0  0  0  0  0  0  0
    1.5000    0.0000    0.0000 C   0  0  0  0  0  0  0  0  0  0  0  0
    0.7500    1.2990    0.0000 C   0  0  0  0  0  0  0  0  0  0  0  0
   -0.7500    1.2990    0.0000 C   0  0  0  0  0  0  0  0  0  0  0  0
   -1.5000    0.0000    0.0000 C   0  0  0  0  0  0  0  0  0  0  0  0
   -0.7500   -1.2990    0.0000 C   0  0  0  0  0  0  0  0  0  0  0  0
   -1.5000   -2.5981    0.0000 S   0  0  0  0  0  0  0  0  0  0  0  0
   -2.6491   -1.6339    0.0000 O   0  0  0  0  0  0  0  0  0  0  0  0
   -2.6491   -3.5623    0.0000 O   0  0  0  0  0  0  0  0  0  0  0  0
    1.5000   -5.1962    0.0000 C   0  0  0  0  0  0  0  0  0  0  0  0
    3.0000   -5.1962    0.0000 O   0  0  0  0  0  0  0  0  0  0  0  0
    0.7500   -6.4952    0.0000 N   0  0  0  0  0  0  0  0  0  0  0  0
    1.5000   -7.7942    0.0000 C   0  0  0  0  0  0  0  0  0  0  0  0
    2.9918   -7.9510    0.0000 N   0  0  0  0  0  0  0  0  0  0  0  0
    3.3037   -9.4182    0.0000 C   0  0  0  0  0  0  0  0  0  0  0  0
    2.0046  -10.1682    0.0000 C   0  0  0  0  0  0  0  0  0  0  0  0
    1.8478  -11.6600    0.0000 C   0  0  0  0  0  0  0  0  0  0  0  0
    0.8899   -9.1645    0.0000 S   0  0  0  0  0  0  0  0  0  0  0  0
  1  2  1  0
  2  3  1  0
  3  4  2  0
  4  5  1  0
  4  6  1  0
  6  7  2  0
  7  8  1  0
  8  9  2  0
  9 10  1  0
 10 11  2  0
 11 12  1  0
 12 13  2  0
 12 14  2  0
  3 15  1  0
 15 16  2  0
 15 17  1  0
 17 18  1  0
 18 19  2  0
 19 20  1  0
 20 21  2  0
 21 22  1  0
 21 23  1  0
 12  2  1  0
 11  6  1  0
 23 18  1  0
M  END
$$$$
422253
     RDKit          2D

 32 34  0  0  0  0  0  0  0  0999 V2000
    3.0000    0.0000    0.0000 C   0  0  0  0  0  0  0  0  0  0  0  0
    1.5000    0.0000    0.0000 N   0  0  0  0  0  0  0  0  0  0  0  0
    0.7500   -1.2990    0.0000 C   0  0  0  0  0  0  0  0  0  0  0  0
    1.5000   -2.5981    0.0000 O   0  0  0  0  0  0  0  0  0  0  0  0
   -0.7500   -1.2990    0.0000 C   0  0  0  0  0  0  0  0  0  0  0  0
   -1.5000    0.0000    0.0000 C   0  0  0  0  0  0  0  0  0  0  0  0
   -0.7500    1.2990    0.0000 N   0  0  0  0  0  0  0  0  0  0  0  0
    0.7500    1.2990    0.0000 C   0  0  0  0  0  0  0  0  0  0  0  0
    1.5000    2.5981    0.0000 C   0  0  0  0  0  0  0  0  0  0  0  0
    0.2010    3.3481    0.0000 C   0  0  0  0  0  0  0  0  0  0  0  0
    2.7990    1.8481    0.0000 C   0  0  0  0  0  0  0  0  0  0  0  0
    2.2500    3.8971    0.0000 N   0  0  0  0  0  0  0  0  0  0  0  0
    1.5000    5.1962    0.0000 C   0  0  0  0  0  0  0  0  0  0  0  0
    0.0000    5.1962    0.0000 O   0  0  0  0  0  0  0  0  0  0  0  0
    2.2500    6.4952    0.0000 C   0  0  0  0  0  0  0  0  0  0  0  0
    1.6399    7.8655    0.0000 O   0  0  0  0  0  0  0  0  0  0  0  0
    2.7546    8.8692    0.0000 C   0  0  0  0  0  0  0  0  0  0  0  0
    2.5978   10.3610    0.0000 C   0  0  0  0  0  0  0  0  0  0  0  0
    4.0537    8.1192    0.0000 N   0  0  0  0  0  0  0  0  0  0  0  0
    3.7418    6.6520    0.0000 N   0  0  0  0  0  0  0  0  0  0  0  0
   -3.0000    0.0000    0.0000 C   0  0  0  0  0  0  0  0  0  0  0  0
   -3.7500   -1.2990    0.0000 O   0  0  0  0  0  0  0  0  0  0  0  0
   -3.7500    1.2990    0.0000 N   0  0  0  0  0  0  0  0  0  0  0  0
   -5.2500    1.2990    0.0000 C   0  0  0  0  0  0  0  0  0  0  0  0
   -6.0000    2.5981    0.0000 C   0  0  0  0  0  0  0  0  0  0  0  0
   -5.2500    3.8971    0.0000 C   0  0  0  0  0  0  0  0  0  0  0  0
   -6.0000    5.1962    0.0000 C   0  0  0  0  0  0  0  0  0  0  0  0
   -7.5000    5.1962    0.0000 C   0  0  0  0  0  0  0  0  0  0  0  0
   -8.2500    6.4952    0.0000 F   0  0  0  0  0  0  0  0  0  0  0  0
   -8.2500    3.8971    0.0000 C   0  0  0  0  0  0  0  0  0  0  0  0
   -7.5000    2.5981    0.0000 C   0  0  0  0  0  0  0  0  0  0  0  0
   -1.5000   -2.5981    0.0000 O   0  0  0  0  0  0  0  0  0  0  0  0
  1  2  1  0
  2  3  1  0
  3  4  2  0
  3  5  1  0
  5  6  2  0
  6  7  1  0
  7  8  2  0
  8  9  1  0
  9 10  1  0
  9 11  1  0
  9 12  1  0
 12 13  1  0
 13 14  2  0
 13 15  1  0
 15 16  1  0
 16 17  1  0
 17 18  1  0
 17 19  2  0
 19 20  1  0
  6 21  1  0
 21 22  2  0
 21 23  1  0
 23 24  1  0
 24 25  1  0
 25 26  2  0
 26 27  1  0
 27 28  2  0
 28 29  1  0
 28 30  1  0
 30 31  2  0
  5 32  1  0
  8  2  1  0
 20 15  2  0
 31 25  1  0
M  END
$$$$
1376145
     RDKit          2D

 37 41  0  0  0  0  0  0  0  0999 V2000
    3.0000    0.0000    0.0000 C   0  0  0  0  0  0  0  0  0  0  0  0
    1.5000    0.0000    0.0000 N   0  0  0  0  0  0  0  0  0  0  0  0
    0.7500   -1.2990    0.0000 C   0  0  0  0  0  0  0  0  0  0  0  0
    1.5000   -2.5981    0.0000 O   0  0  0  0  0  0  0  0  0  0  0  0
   -0.7500   -1.2990    0.0000 C   0  0  0  0  0  0  0  0  0  0  0  0
   -1.5000    0.0000    0.0000 C   0  0  0  0  0  0  0  0  0  0  0  0
   -3.0000    0.0000    0.0000 N   0  0  0  0  0  0  0  0  0  0  0  0
   -3.7500    1.2990    0.0000 C   0  0  0  0  0  0  0  0  0  0  0  0
   -5.2500    1.2990    0.0000 O   0  0  0  0  0  0  0  0  0  0  0  0
   -3.0000    2.5981    0.0000 N   0  0  0  0  0  0  0  0  0  0  0  0
   -3.7500    3.8971    0.0000 C   0  0  0  0  0  0  0  0  0  0  0  0
   -5.0490    4.6471    0.0000 C   0  0  0  0  0  0  0  0  0  0  0  0
   -3.7500    5.3971    0.0000 C   0  0  0  0  0  0  0  0  0  0  0  0
   -1.5000    2.5981    0.0000 C   0  0  0  0  0  0  0  0  0  0  0  0
   -0.7500    3.8971    0.0000 O   0  0  0  0  0  0  0  0  0  0  0  0
   -0.7500    1.2990    0.0000 C   0  0  0  0  0  0  0  0  0  0  0  0
    0.7500    1.2990    0.0000 C   0  0  0  0  0  0  0  0  0  0  0  0
    1.5000    2.5981    0.0000 N   0  0  0  0  0  0  0  0  0  0  0  0
    3.0000    2.5981    0.0000 C   0  0  0  0  0  0  0  0  0  0  0  0
    3.7500    1.2990    0.0000 C   0  0  0  0  0  0  0  0  0  0  0  0
    5.2500    1.2990    0.0000 C   0  0  0  0  0  0  0  0  0  0  0  0
    6.0000    2.5981    0.0000 C   0  0  0  0  0  0  0  0  0  0  0  0
    7.5000    2.5981    0.0000 I   0  0  0  0  0  0  0  0  0  0  0  0
    5.2500    3.8971    0.0000 C   0  0  0  0  0  0  0  0  0  0  0  0
    3.7500    3.8971    0.0000 C   0  0  0  0  0  0  0  0  0  0  0  0
    3.0000    5.1962    0.0000 F   0  0  0  0  0  0  0  0  0  0  0  0
   -3.7500   -1.2990    0.0000 C   0  0  0  0  0  0  0  0  0  0  0  0
   -5.2500   -1.2990    0.0000 C   0  0  0  0  0  0  0  0  0  0  0  0
   -6.0000   -2.5981    0.0000 C   0  0  0  0  0  0  0  0  0  0  0  0
   -5.2500   -3.8971    0.0000 C   0  0  0  0  0  0  0  0  0  0  0  0
   -3.7500   -3.8971    0.0000 C   0  0  0  0  0  0  0  0  0  0  0  0
   -3.0000   -5.1962    0.0000 N   0  0  0  0  0  0  0  0  0  0  0  0
   -3.7500   -6.4952    0.0000 C   0  0  0  0  0  0  0  0  0  0  0  0
   -5.2500   -6.4952    0.0000 O   0  0  0  0  0  0  0  0  0  0  0  0
   -3.0000   -7.7942    0.0000 C   0  0  0  0  0  0  0  0  0  0  0  0
   -3.0000   -2.5981    0.0000 C   0  0  0  0  0  0  0  0  0  0  0  0
   -1.5000   -2.5981    0.0000 C   0  0  0  0  0  0  0  0  0  0  0  0
  1  2  1  0
  2  3  1  0
  3  4  2  0
  3  5  1  0
  5  6  2  0
  6  7  1  0
  7  8  1  0
  8  9  2  0
  8 10  1  0
 10 11  1  0
 11 12  1  0
 12 13  1  0
 10 14  1  0
 14 15  2  0
 14 16  1  0
 16 17  2  0
 17 18  1  0
 18 19  1  0
 19 20  2  0
 20 21  1  0
 21 22  2  0
 22 23  1  0
 22 24  1  0
 24 25  2  0
 25 26  1  0
  7 27  1  0
 27 28  2  0
 28 29  1  0
 29 30  2  0
 30 31  1  0
 31 32  1  0
 32 33  1  0
 33 34  2  0
 33 35  1  0
 31 36  2  0
  5 37  1  0
 17  2  1  0
 16  6  1  0
 13 11  1  0
 25 19  1  0
 36 27  1  0
M  END
$$$$
1378011
     RDKit          2D

 41 44  0  0  0  0  0  0  0  0999 V2000
    3.0000    0.0000    0.0000 C   0  0  0  0  0  0  0  0  0  0  0  0
    1.5000    0.0000    0.0000 N   0  0  0  0  0  0  0  0  0  0  0  0
    0.7500   -1.2990    0.0000 C   0  0  0  0  0  0  0  0  0  0  0  0
    1.5000   -2.5981    0.0000 O   0  0  0  0  0  0  0  0  0  0  0  0
   -0.7500   -1.2990    0.0000 C   0  0  0  0  0  0  0  0  0  0  0  0
   -1.5000    0.0000    0.0000 C   0  0  0  0  0  0  0  0  0  0  0  0
   -3.0000    0.0000    0.0000 N   0  0  0  0  0  0  0  0  0  0  0  0
   -3.7500    1.2990    0.0000 C   0  0  0  0  0  0  0  0  0  0  0  0
   -5.2500    1.2990    0.0000 O   0  0  0  0  0  0  0  0  0  0  0  0
   -3.0000    2.5981    0.0000 N   0  0  0  0  0  0  0  0  0  0  0  0
   -3.7500    3.8971    0.0000 C   0  0  0  0  0  0  0  0  0  0  0  0
   -5.0490    4.6471    0.0000 C   0  0  0  0  0  0  0  0  0  0  0  0
   -3.7500    5.3971    0.0000 C   0  0  0  0  0  0  0  0  0  0  0  0
   -1.5000    2.5981    0.0000 C   0  0  0  0  0  0  0  0  0  0  0  0
   -0.7500    3.8971    0.0000 O   0  0  0  0  0  0  0  0  0  0  0  0
   -0.7500    1.2990    0.0000 C   0  0  0  0  0  0  0  0  0  0  0  0
    0.7500    1.2990    0.0000 C   0  0  0  0  0  0  0  0  0  0  0  0
    1.5000    2.5981    0.0000 N   0  0  0  0  0  0  0  0  0  0  0  0
    3.0000    2.5981    0.0000 C   0  0  0  0  0  0  0  0  0  0  0  0
    3.7500    1.2990    0.0000 C   0  0  0  0  0  0  0  0  0  0  0  0
    5.2500    1.2990    0.0000 C   0  0  0  0  0  0  0  0  0  0  0  0
    6.0000    2.5981    0.0000 C   0  0  0  0  0  0  0  0  0  0  0  0
    7.5000    2.5981    0.0000 I   0  0  0  0  0  0  0  0  0  0  0  0
    5.2500    3.8971    0.0000 C   0  0  0  0  0  0  0  0  0  0  0  0
    3.7500    3.8971    0.0000 C   0  0  0  0  0  0  0  0  0  0  0  0
    3.0000    5.1962    0.0000 F   0  0  0  0  0  0  0  0  0  0  0  0
   -3.7500   -1.2990    0.0000 C   0  0  0  0  0  0  0  0  0  0  0  0
   -5.2500   -1.2990    0.0000 C   0  0  0  0  0  0  0  0  0  0  0  0
   -6.0000   -2.5981    0.0000 C   0  0  0  0  0  0  0  0  0  0  0  0
   -5.2500   -3.8971    0.0000 C   0  0  0  0  0  0  0  0  0  0  0  0
   -3.7500   -3.8971    0.0000 C   0  0  0  0  0  0  0  0  0  0  0  0
   -3.0000   -5.1962    0.0000 N   0  0  0  0  0  0  0  0  0  0  0  0
   -3.7500   -6.4952    0.0000 C   0  0  0  0  0  0  0  0  0  0  0  0
   -5.2500   -6.4952    0.0000 O   0  0  0  0  0  0  0  0  0  0  0  0
   -3.0000   -7.7942    0.0000 C   0  0  0  0  0  0  0  0  0  0  0  0
   -3.0000   -2.5981    0.0000 C   0  0  0  0  0  0  0  0  0  0  0  0
   -1.5000   -2.5981    0.0000 C   0  0  0  0  0  0  0  0  0  0  0  0
    0.0000    6.3971    0.0000 C   0  0  0  0  0  0  0  0  0  0  0  0
    1.2990    7.1471    0.0000 S   0  0  0  0  0  0  0  0  0  0  0  0
    1.2990    8.6471    0.0000 O   0  0  0  0  0  0  0  0  0  0  0  0
    2.5981    6.3971    0.0000 C   0  0  0  0  0  0  0  0  0  0  0  0
  1  2  1  0
  2  3  1  0
  3  4  2  0
  3  5  1  0
  5  6  2  0
  6  7  1  0
  7  8  1  0
  8  9  2  0
  8 10  1  0
 10 11  1  0
 11 12  1  0
 12 13  1  0
 10 14  1  0
 14 15  2  0
 14 16  1  0
 16 17  2  0
 17 18  1  0
 18 19  1  0
 19 20  2  0
 20 21  1  0
 21 22  2  0
 22 23  1  0
 22 24  1  0
 24 25  2  0
 25 26  1  0
  7 27  1  0
 27 28  2  0
 28 29  1  0
 29 30  2  0
 30 31  1  0
 31 32  1  0
 32 33  1  0
 33 34  2  0
 33 35  1  0
 31 36  2  0
  5 37  1  0
 38 39  1  0
 39 40  2  0
 39 41  1  0
 17  2  1  0
 16  6  1  0
 13 11  1  0
 25 19  1  0
 36 27  1  0
M  END
$$$$
95909
     RDKit          2D

 21 23  0  0  0  0  0  0  0  0999 V2000
   -3.1476   -2.1380    0.0000 C   0  0  0  0  0  0  0  0  0  0  0  0
   -1.6852   -2.4718    0.0000 N   0  0  0  0  0  0  0  0  0  0  0  0
   -1.3515   -3.9342    0.0000 C   0  0  0  0  0  0  0  0  0  0  0  0
   -2.5242   -4.8694    0.0000 O   0  0  0  0  0  0  0  0  0  0  0  0
   -0.0000   -4.5850    0.0000 C   0  0  0  0  0  0  0  0  0  0  0  0
   -0.0000   -6.0850    0.0000 O   0  0  0  0  0  0  0  0  0  0  0  0
    1.3515   -3.9342    0.0000 N   0  0  0  0  0  0  0  0  0  0  0  0
    1.6852   -2.4718    0.0000 C   0  0  0  0  0  0  0  0  0  0  0  0
    3.1476   -2.1380    0.0000 C   0  0  0  0  0  0  0  0  0  0  0  0
    4.1679   -3.2376    0.0000 C   0  0  0  0  0  0  0  0  0  0  0  0
    5.6303   -2.9038    0.0000 C   0  0  0  0  0  0  0  0  0  0  0  0
    6.0724   -1.4704    0.0000 C   0  0  0  0  0  0  0  0  0  0  0  0
    5.0522   -0.3709    0.0000 C   0  0  0  0  0  0  0  0  0  0  0  0
    3.5898   -0.7046    0.0000 C   0  0  0  0  0  0  0  0  0  0  0  0
    0.7500   -1.2990    0.0000 C   0  0  0  0  0  0  0  0  0  0  0  0
    1.5000    0.0000    0.0000 C   0  0  0  0  0  0  0  0  0  0  0  0
    0.7500    1.2990    0.0000 C   0  0  0  0  0  0  0  0  0  0  0  0
    1.5000    2.5981    0.0000 Cl  0  0  0  0  0  0  0  0  0  0  0  0
   -0.7500    1.2990    0.0000 C   0  0  0  0  0  0  0  0  0  0  0  0
   -1.5000    0.0000    0.0000 C   0  0  0  0  0  0  0  0  0  0  0  0
   -0.7500   -1.2990    0.0000 C   0  0  0  0  0  0  0  0  0  0  0  0
  1  2  1  0
  2  3  1  0
  3  4  2  0
  3  5  1  0
  5  6  1  0
  5  7  1  0
  7  8  2  0
  8  9  1  0
  9 10  2  0
 10 11  1  0
 11 12  2  0
 12 13  1  0
 13 14  2  0
  8 15  1  0
 15 16  2  0
 16 17  1  0
 17 18  1  0
 17 19  2  0
 19 20  1  0
 20 21  2  0
 21  2  1  0
 14  9  1  0
 21 15  1  0
M  END
$$$$
377721
     RDKit          2D

 25 27  0  0  0  0  0  0  0  0999 V2000
    3.0000    0.0000    0.0000 C   0  0  0  0  0  0  0  0  0  0  0  0
    1.5000    0.0000    0.0000 N   0  0  0  0  0  0  0  0  0  0  0  0
    0.7500   -1.2990    0.0000 C   0  0  0  0  0  0  0  0  0  0  0  0
    1.5000   -2.5981    0.0000 O   0  0  0  0  0  0  0  0  0  0  0  0
   -0.7500   -1.2990    0.0000 C   0  0  0  0  0  0  0  0  0  0  0  0
   -1.5000    0.0000    0.0000 C   0  0  0  0  0  0  0  0  0  0  0  0
   -3.0000    0.0000    0.0000 N   0  0  0  0  0  0  0  0  0  0  0  0
   -3.7500    1.2990    0.0000 C   0  0  0  0  0  0  0  0  0  0  0  0
   -5.2500    1.2990    0.0000 C   0  0  0  0  0  0  0  0  0  0  0  0
   -6.0000    0.0000    0.0000 C   0  0  0  0  0  0  0  0  0  0  0  0
   -5.2500   -1.2990    0.0000 C   0  0  0  0  0  0  0  0  0  0  0  0
   -6.0000   -2.5981    0.0000 N   0  0  0  0  0  0  0  0  0  0  0  0
   -3.7500   -1.2990    0.0000 C   0  0  0  0  0  0  0  0  0  0  0  0
   -0.7500    1.2990    0.0000 N   0  0  0  0  0  0  0  0  0  0  0  0
   -1.5000    2.5981    0.0000 C   0  0  0  0  0  0  0  0  0  0  0  0
   -0.7500    3.8971    0.0000 C   0  0  0  0  0  0  0  0  0  0  0  0
    0.7500    3.8971    0.0000 C   0  0  0  0  0  0  0  0  0  0  0  0
    1.5000    5.1962    0.0000 C   0  0  0  0  0  0  0  0  0  0  0  0
    0.7500    6.4952    0.0000 C   0  0  0  0  0  0  0  0  0  0  0  0
   -0.7500    6.4952    0.0000 C   0  0  0  0  0  0  0  0  0  0  0  0
   -1.5000    5.1962    0.0000 C   0  0  0  0  0  0  0  0  0  0  0  0
   -3.0000    5.1962    0.0000 C   0  0  0  0  0  0  0  0  0  0  0  0
   -4.5000    5.1962    0.0000 N   0  0  0  0  0  0  0  0  0  0  0  0
    0.7500    1.2990    0.0000 C   0  0  0  0  0  0  0  0  0  0  0  0
    1.5000    2.5981    0.0000 O   0  0  0  0  0  0  0  0  0  0  0  0
  1  2  1  0
  2  3  1  0
  3  4  2  0
  3  5  1  0
  5  6  2  0
  6  7  1  0
  7  8  1  0
  8  9  1  0
  9 10  1  0
 10 11  1  0
 11 12  1  6
 11 13  1  0
  6 14  1  0
 14 15  1  0
 15 16  1  0
 16 17  2  0
 17 18  1  0
 18 19  2  0
 19 20  1  0
 20 21  2  0
 21 22  1  0
 22 23  3  0
 14 24  1  0
 24 25  2  0
 24  2  1  0
 13  7  1  0
 21 16  1  0
M  END
$$$$
377715
     RDKit          2D

 34 36  0  0  0  0  0  0  0  0999 V2000
    3.0000    0.0000    0.0000 C   0  0  0  0  0  0  0  0  0  0  0  0
    1.5000    0.0000    0.0000 N   0  0  0  0  0  0  0  0  0  0  0  0
    0.7500   -1.2990    0.0000 C   0  0  0  0  0  0  0  0  0  0  0  0
    1.5000   -2.5981    0.0000 O   0  0  0  0  0  0  0  0  0  0  0  0
   -0.7500   -1.2990    0.0000 C   0  0  0  0  0  0  0  0  0  0  0  0
   -1.5000    0.0000    0.0000 C   0  0  0  0  0  0  0  0  0  0  0  0
   -3.0000    0.0000    0.0000 N   0  0  0  0  0  0  0  0  0  0  0  0
   -3.7500    1.2990    0.0000 C   0  0  0  0  0  0  0  0  0  0  0  0
   -5.2500    1.2990    0.0000 C   0  0  0  0  0  0  0  0  0  0  0  0
   -6.0000    0.0000    0.0000 C   0  0  0  0  0  0  0  0  0  0  0  0
   -5.2500   -1.2990    0.0000 C   0  0  0  0  0  0  0  0  0  0  0  0
   -6.0000   -2.5981    0.0000 N   0  0  0  0  0  0  0  0  0  0  0  0
   -3.7500   -1.2990    0.0000 C   0  0  0  0  0  0  0  0  0  0  0  0
   -0.7500    1.2990    0.0000 N   0  0  0  0  0  0  0  0  0  0  0  0
   -1.5000    2.5981    0.0000 C   0  0  0  0  0  0  0  0  0  0  0  0
   -0.7500    3.8971    0.0000 C   0  0  0  0  0  0  0  0  0  0  0  0
    0.7500    3.8971    0.0000 C   0  0  0  0  0  0  0  0  0  0  0  0
    1.5000    5.1962    0.0000 C   0  0  0  0  0  0  0  0  0  0  0  0
    0.7500    6.4952    0.0000 C   0  0  0  0  0  0  0  0  0  0  0  0
   -0.7500    6.4952    0.0000 C   0  0  0  0  0  0  0  0  0  0  0  0
   -1.5000    5.1962    0.0000 C   0  0  0  0  0  0  0  0  0  0  0  0
   -3.0000    5.1962    0.0000 C   0  0  0  0  0  0  0  0  0  0  0  0
   -4.5000    5.1962    0.0000 N   0  0  0  0  0  0  0  0  0  0  0  0
    0.7500    1.2990    0.0000 C   0  0  0  0  0  0  0  0  0  0  0  0
    1.5000    2.5981    0.0000 O   0  0  0  0  0  0  0  0  0  0  0  0
    9.2500   -1.2990    0.0000 O   0  0  0  0  0  0  0  0  0  0  0  0
    8.5000    0.0000    0.0000 C   0  0  0  0  0  0  0  0  0  0  0  0
    9.2500    1.2990    0.0000 O   0  0  0  0  0  0  0  0  0  0  0  0
    7.0000    0.0000    0.0000 C   0  0  0  0  0  0  0  0  0  0  0  0
    6.2500   -1.2990    0.0000 C   0  0  0  0  0  0  0  0  0  0  0  0
    4.7500   -1.2990    0.0000 C   0  0  0  0  0  0  0  0  0  0  0  0
    4.0000    0.0000    0.0000 C   0  0  0  0  0  0  0  0  0  0  0  0
    4.7500    1.2990    0.0000 C   0  0  0  0  0  0  0  0  0  0  0  0
    6.2500    1.2990    0.0000 C   0  0  0  0  0  0  0  0  0  0  0  0
  1  2  1  0
  2  3  1  0
  3  4  2  0
  3  5  1  0
  5  6  2  0
  6  7  1  0
  7  8  1  0
  8  9  1  0
  9 10  1  0
 10 11  1  0
 11 12  1  6
 11 13  1  0
  6 14  1  0
 14 15  1  0
 15 16  1  0
 16 17  2  0
 17 18  1  0
 18 19  2  0
 19 20  1  0
 20 21  2  0
 21 22  1  0
 22 23  3  0
 14 24  1  0
 24 25  2  0
 26 27  1  0
 27 28  2  0
 27 29  1  0
 29 30  2  0
 30 31  1  0
 31 32  2  0
 32 33  1  0
 33 34  2  0
 24  2  1  0
 13  7  1  0
 21 16  1  0
 34 29  1  0
M  END
$$$$
111390
     RDKit          2D

 21 23  0  0  0  0  0  0  0  0999 V2000
   -3.1476   -2.1380    0.0000 C   0  0  0  0  0  0  0  0  0  0  0  0
   -1.6852   -2.4718    0.0000 N   0  0  0  0  0  0  0  0  0  0  0  0
   -1.3515   -3.9342    0.0000 C   0  0  0  0  0  0  0  0  0  0  0  0
   -2.5242   -4.8694    0.0000 O   0  0  0  0  0  0  0  0  0  0  0  0
   -0.0000   -4.5850    0.0000 C   0  0  0  0  0  0  0  0  0  0  0  0
    1.3515   -3.9342    0.0000 C   0  0  0  0  0  0  0  0  0  0  0  0
    2.5242   -4.8694    0.0000 O   0  0  0  0  0  0  0  0  0  0  0  0
    1.6852   -2.4718    0.0000 N   0  0  0  0  0  0  0  0  0  0  0  0
    3.1476   -2.1380    0.0000 C   0  0  0  0  0  0  0  0  0  0  0  0
    4.1679   -3.2376    0.0000 C   0  0  0  0  0  0  0  0  0  0  0  0
    5.6303   -2.9038    0.0000 C   0  0  0  0  0  0  0  0  0  0  0  0
    6.0724   -1.4704    0.0000 C   0  0  0  0  0  0  0  0  0  0  0  0
    5.0522   -0.3709    0.0000 C   0  0  0  0  0  0  0  0  0  0  0  0
    3.5898   -0.7046    0.0000 C   0  0  0  0  0  0  0  0  0  0  0  0
    0.7500   -1.2990    0.0000 C   0  0  0  0  0  0  0  0  0  0  0  0
    1.5000    0.0000    0.0000 C   0  0  0  0  0  0  0  0  0  0  0  0
    0.7500    1.2990    0.0000 C   0  0  0  0  0  0  0  0  0  0  0  0
    1.5000    2.5981    0.0000 Cl  0  0  0  0  0  0  0  0  0  0  0  0
   -0.7500    1.2990    0.0000 C   0  0  0  0  0  0  0  0  0  0  0  0
   -1.5000    0.0000    0.0000 C   0  0  0  0  0  0  0  0  0  0  0  0
   -0.7500   -1.2990    0.0000 C   0  0  0  0  0  0  0  0  0  0  0  0
  1  2  1  0
  2  3  1  0
  3  4  2  0
  3  5  1  0
  5  6  1  0
  6  7  2  0
  6  8  1  0
  8  9  1  0
  9 10  2  0
 10 11  1  0
 11 12  2  0
 12 13  1  0
 13 14  2  0
  8 15  1  0
 15 16  2  0
 16 17  1  0
 17 18  1  0
 17 19  2  0
 19 20  1  0
 20 21  2  0
 21  2  1  0
 14  9  1  0
 21 15  1  0
M  END
$$$$
31857
     RDKit          2D

 15 16  0  0  0  0  0  0  0  0999 V2000
   -0.8282   -5.7037    0.0000 C   0  0  0  0  0  0  0  0  0  0  0  0
    0.2865   -4.7000    0.0000 N   0  0  0  0  0  0  0  0  0  0  0  0
    1.7537   -5.0118    0.0000 C   0  0  0  0  0  0  0  0  0  0  0  0
    2.3638   -6.3821    0.0000 O   0  0  0  0  0  0  0  0  0  0  0  0
    2.5037   -3.7128    0.0000 C   0  0  0  0  0  0  0  0  0  0  0  0
    1.5000   -2.5981    0.0000 C   0  0  0  0  0  0  0  0  0  0  0  0
    2.7135   -1.7164    0.0000 C   0  0  0  0  0  0  0  0  0  0  0  0
    0.1297   -3.2082    0.0000 C   0  0  0  0  0  0  0  0  0  0  0  0
   -1.1694   -2.4582    0.0000 O   0  0  0  0  0  0  0  0  0  0  0  0
    0.7500   -1.2990    0.0000 C   0  0  0  0  0  0  0  0  0  0  0  0
    1.5000    0.0000    0.0000 C   0  0  0  0  0  0  0  0  0  0  0  0
    0.7500    1.2990    0.0000 C   0  0  0  0  0  0  0  0  0  0  0  0
   -0.7500    1.2990    0.0000 C   0  0  0  0  0  0  0  0  0  0  0  0
   -1.5000    0.0000    0.0000 C   0  0  0  0  0  0  0  0  0  0  0  0
   -0.7500   -1.2990    0.0000 C   0  0  0  0  0  0  0  0  0  0  0  0
  1  2  1  0
  2  3  1  0
  3  4  2  0
  3  5  1  0
  5  6  1  0
  6  7  1  0
  6  8  1  0
  8  9  2  0
  6 10  1  0
 10 11  2  0
 11 12  1  0
 12 13  2  0
 13 14  1  0
 14 15  2  0
  8  2  1  0
 15 10  1  0
M  END
$$$$
49869
     RDKit          2D

 14 15  0  0  0  0  0  0  0  0999 V2000
    1.8478   -6.4639    0.0000 C   0  0  0  0  0  0  0  0  0  0  0  0
    2.0046   -4.9721    0.0000 N   0  0  0  0  0  0  0  0  0  0  0  0
    3.3037   -4.2221    0.0000 C   0  0  0  0  0  0  0  0  0  0  0  0
    4.6740   -4.8322    0.0000 O   0  0  0  0  0  0  0  0  0  0  0  0
    2.9918   -2.7549    0.0000 C   0  0  0  0  0  0  0  0  0  0  0  0
    1.5000   -2.5981    0.0000 C   0  0  0  0  0  0  0  0  0  0  0  0
    0.8899   -3.9684    0.0000 C   0  0  0  0  0  0  0  0  0  0  0  0
   -0.5773   -4.2803    0.0000 O   0  0  0  0  0  0  0  0  0  0  0  0
    0.7500   -1.2990    0.0000 C   0  0  0  0  0  0  0  0  0  0  0  0
    1.5000    0.0000    0.0000 C   0  0  0  0  0  0  0  0  0  0  0  0
    0.7500    1.2990    0.0000 C   0  0  0  0  0  0  0  0  0  0  0  0
   -0.7500    1.2990    0.0000 C   0  0  0  0  0  0  0  0  0  0  0  0
   -1.5000    0.0000    0.0000 C   0  0  0  0  0  0  0  0  0  0  0  0
   -0.7500   -1.2990    0.0000 C   0  0  0  0  0  0  0  0  0  0  0  0
  1  2  1  0
  2  3  1  0
  3  4  2  0
  3  5  1  0
  5  6  1  0
  6  7  1  0
  7  8  2  0
  6  9  1  0
  9 10  2  0
 10 11  1  0
 11 12  2  0
 12 13  1  0
 13 14  2  0
  7  2  1  0
 14  9  1  0
M  END
$$$$
721
     RDKit          2D

 20 22  0  0  0  0  0  0  0  0999 V2000
   -3.1476   -2.1380    0.0000 C   0  0  0  0  0  0  0  0  0  0  0  0
   -1.6852   -2.4718    0.0000 N   0  0  0  0  0  0  0  0  0  0  0  0
   -1.3515   -3.9342    0.0000 C   0  0  0  0  0  0  0  0  0  0  0  0
   -2.5242   -4.8694    0.0000 O   0  0  0  0  0  0  0  0  0  0  0  0
   -0.0000   -4.5850    0.0000 C   0  0  0  0  0  0  0  0  0  0  0  0
    1.3515   -3.9342    0.0000 N   0  0  0  0  0  0  0  0  0  0  0  0
    1.6852   -2.4718    0.0000 C   0  0  0  0  0  0  0  0  0  0  0  0
    3.1476   -2.1380    0.0000 C   0  0  0  0  0  0  0  0  0  0  0  0
    4.1679   -3.2376    0.0000 C   0  0  0  0  0  0  0  0  0  0  0  0
    5.6303   -2.9038    0.0000 C   0  0  0  0  0  0  0  0  0  0  0  0
    6.0724   -1.4704    0.0000 C   0  0  0  0  0  0  0  0  0  0  0  0
    5.0522   -0.3709    0.0000 C   0  0  0  0  0  0  0  0  0  0  0  0
    3.5898   -0.7046    0.0000 C   0  0  0  0  0  0  0  0  0  0  0  0
    0.7500   -1.2990    0.0000 C   0  0  0  0  0  0  0  0  0  0  0  0
    1.5000    0.0000    0.0000 C   0  0  0  0  0  0  0  0  0  0  0  0
    0.7500    1.2990    0.0000 C   0  0  0  0  0  0  0  0  0  0  0  0
    1.5000    2.5981    0.0000 Cl  0  0  0  0  0  0  0  0  0  0  0  0
   -0.7500    1.2990    0.0000 C   0  0  0  0  0  0  0  0  0  0  0  0
   -1.5000    0.0000    0.0000 C   0  0  0  0  0  0  0  0  0  0  0  0
   -0.7500   -1.2990    0.0000 C   0  0  0  0  0  0  0  0  0  0  0  0
  1  2  1  0
  2  3  1  0
  3  4  2  0
  3  5  1  0
  5  6  1  0
  6  7  2  0
  7  8  1  0
  8  9  2  0
  9 10  1  0
 10 11  2  0
 11 12  1  0
 12 13  2  0
  7 14  1  0
 14 15  2  0
 15 16  1  0
 16 17  1  0
 16 18  2  0
 18 19  1  0
 19 20  2  0
 20  2  1  0
 13  8  1  0
 20 14  1  0
M  END
$$$$
16485
     RDKit          2D

 14 15  0  0  0  0  0  0  0  0999 V2000
   -2.9499    4.2246    0.0000 C   0  0  0  0  0  0  0  0  0  0  0  0
   -1.8351    3.2209    0.0000 N   0  0  0  0  0  0  0  0  0  0  0  0
   -0.4086    3.6844    0.0000 C   0  0  0  0  0  0  0  0  0  0  0  0
   -0.0967    5.1517    0.0000 O   0  0  0  0  0  0  0  0  0  0  0  0
    0.7062    2.6807    0.0000 N   0  0  0  0  0  0  0  0  0  0  0  0
    2.1328    3.1443    0.0000 C   0  0  0  0  0  0  0  0  0  0  0  0
    0.3943    1.2135    0.0000 C   0  0  0  0  0  0  0  0  0  0  0  0
    1.2760    0.0000    0.0000 N   0  0  0  0  0  0  0  0  0  0  0  0
    0.3943   -1.2135    0.0000 C   0  0  0  0  0  0  0  0  0  0  0  0
   -1.0323   -0.7500    0.0000 N   0  0  0  0  0  0  0  0  0  0  0  0
   -2.2458   -1.6317    0.0000 C   0  0  0  0  0  0  0  0  0  0  0  0
   -1.0323    0.7500    0.0000 C   0  0  0  0  0  0  0  0  0  0  0  0
   -2.1470    1.7537    0.0000 C   0  0  0  0  0  0  0  0  0  0  0  0
   -3.5736    1.2902    0.0000 O   0  0  0  0  0  0  0  0  0  0  0  0
  1  2  1  0
  2  3  1  0
  3  4  2  0
  3  5  1  0
  5  6  1  0
  5  7  1  0
  7  8  1  0
  8  9  2  0
  9 10  1  0
 10 11  1  0
 10 12  1  0
 12 13  1  0
 13 14  2  0
 13  2  1  0
 12  7  2  0
M  END
$$$$
674520
     RDKit          2D

 27 27  0  0  0  0  0  0  0  0999 V2000
   -2.9499    4.2246    0.0000 C   0  0  0  0  0  0  0  0  0  0  0  0
   -1.8351    3.2209    0.0000 N   0  0  0  0  0  0  0  0  0  0  0  0
   -0.4086    3.6844    0.0000 C   0  0  0  0  0  0  0  0  0  0  0  0
   -0.0967    5.1517    0.0000 O   0  0  0  0  0  0  0  0  0  0  0  0
    0.7062    2.6807    0.0000 N   0  0  0  0  0  0  0  0  0  0  0  0
    2.1328    3.1443    0.0000 C   0  0  0  0  0  0  0  0  0  0  0  0
    0.3943    1.2135    0.0000 C   0  0  0  0  0  0  0  0  0  0  0  0
    1.2760    0.0000    0.0000 N   0  0  0  0  0  0  0  0  0  0  0  0
    0.3943   -1.2135    0.0000 C   0  0  0  0  0  0  0  0  0  0  0  0
   -1.0323   -0.7500    0.0000 N   0  0  0  0  0  0  0  0  0  0  0  0
   -2.2458   -1.6317    0.0000 C   0  0  0  0  0  0  0  0  0  0  0  0
   -1.0323    0.7500    0.0000 C   0  0  0  0  0  0  0  0  0  0  0  0
   -2.1470    1.7537    0.0000 C   0  0  0  0  0  0  0  0  0  0  0  0
   -3.5736    1.2902    0.0000 O   0  0  0  0  0  0  0  0  0  0  0  0
    3.1328    0.0000    0.0000 O   0  0  0  0  0  0  0  0  0  0  0  0
    4.4318    0.7500    0.0000 C   0  0  0  0  0  0  0  0  0  0  0  0
    4.4318    2.2500    0.0000 O   0  0  0  0  0  0  0  0  0  0  0  0
    5.7308    0.0000    0.0000 C   0  0  0  0  0  0  0  0  0  0  0  0
    7.0299    0.7500    0.0000 C   0  0  0  0  0  0  0  0  0  0  0  0
    6.2799    2.0490    0.0000 O   0  0  0  0  0  0  0  0  0  0  0  0
    8.3289    1.5000    0.0000 C   0  0  0  0  0  0  0  0  0  0  0  0
    8.3289    3.0000    0.0000 C   0  0  0  0  0  0  0  0  0  0  0  0
    7.0299    3.7500    0.0000 O   0  0  0  0  0  0  0  0  0  0  0  0
    9.6279    3.7500    0.0000 O   0  0  0  0  0  0  0  0  0  0  0  0
    7.7799   -0.5490    0.0000 C   0  0  0  0  0  0  0  0  0  0  0  0
    7.0299   -1.8481    0.0000 O   0  0  0  0  0  0  0  0  0  0  0  0
    9.2799   -0.5490    0.0000 O   0  0  0  0  0  0  0  0  0  0  0  0
  1  2  1  0
  2  3  1  0
  3  4  2  0
  3  5  1  0
  5  6  1  0
  5  7  1  0
  7  8  1  0
  8  9  2  0
  9 10  1  0
 10 11  1  0
 10 12  1  0
 12 13  1  0
 13 14  2  0
 15 16  1  0
 16 17  2  0
 16 18  1  0
 18 19  1  0
 19 20  1  0
 19 21  1  0
 21 22  1  0
 22 23  2  0
 22 24  1  0
 19 25  1  0
 25 26  2  0
 25 27  1  0
 13  2  1  0
 12  7  2  0
M  END
$$$$
581819
     RDKit          2D

 18 19  0  0  0  0  0  0  0  0999 V2000
   -2.9499    4.2246    0.0000 C   0  0  0  0  0  0  0  0  0  0  0  0
   -1.8351    3.2209    0.0000 N   0  0  0  0  0  0  0  0  0  0  0  0
   -0.4086    3.6844    0.0000 C   0  0  0  0  0  0  0  0  0  0  0  0
   -0.0967    5.1517    0.0000 O   0  0  0  0  0  0  0  0  0  0  0  0
    0.7062    2.6807    0.0000 N   0  0  0  0  0  0  0  0  0  0  0  0
    2.1328    3.1443    0.0000 C   0  0  0  0  0  0  0  0  0  0  0  0
    0.3943    1.2135    0.0000 C   0  0  0  0  0  0  0  0  0  0  0  0
    1.2760    0.0000    0.0000 N   0  0  0  0  0  0  0  0  0  0  0  0
    0.3943   -1.2135    0.0000 C   0  0  0  0  0  0  0  0  0  0  0  0
   -1.0323   -0.7500    0.0000 N   0  0  0  0  0  0  0  0  0  0  0  0
   -2.2458   -1.6317    0.0000 C   0  0  0  0  0  0  0  0  0  0  0  0
   -2.0890   -3.1235    0.0000 C   0  0  0  0  0  0  0  0  0  0  0  0
   -0.7187   -3.7336    0.0000 O   0  0  0  0  0  0  0  0  0  0  0  0
   -3.3025   -4.0051    0.0000 C   0  0  0  0  0  0  0  0  0  0  0  0
   -3.1458   -5.4969    0.0000 O   0  0  0  0  0  0  0  0  0  0  0  0
   -1.0323    0.7500    0.0000 C   0  0  0  0  0  0  0  0  0  0  0  0
   -2.1470    1.7537    0.0000 C   0  0  0  0  0  0  0  0  0  0  0  0
   -3.5736    1.2902    0.0000 O   0  0  0  0  0  0  0  0  0  0  0  0
  1  2  1  0
  2  3  1  0
  3  4  2  0
  3  5  1  0
  5  6  1  0
  5  7  1  0
  7  8  1  0
  8  9  2  0
  9 10  1  0
 10 11  1  0
 11 12  1  0
 12 13  1  0
 12 14  1  0
 14 15  1  0
 10 16  1  0
 16 17  1  0
 17 18  2  0
 17  2  1  0
 16  7  2  0
M  END
$$$$
674385
     RDKit          2D

 20 20  0  0  0  0  0  0  0  0999 V2000
   -2.9499    4.2246    0.0000 C   0  0  0  0  0  0  0  0  0  0  0  0
   -1.8351    3.2209    0.0000 N   0  0  0  0  0  0  0  0  0  0  0  0
   -0.4086    3.6844    0.0000 C   0  0  0  0  0  0  0  0  0  0  0  0
   -0.0967    5.1517    0.0000 O   0  0  0  0  0  0  0  0  0  0  0  0
    0.7062    2.6807    0.0000 N   0  0  0  0  0  0  0  0  0  0  0  0
    2.1328    3.1443    0.0000 C   0  0  0  0  0  0  0  0  0  0  0  0
    0.3943    1.2135    0.0000 C   0  0  0  0  0  0  0  0  0  0  0  0
    1.2760    0.0000    0.0000 N   0  0  0  0  0  0  0  0  0  0  0  0
    0.3943   -1.2135    0.0000 C   0  0  0  0  0  0  0  0  0  0  0  0
   -1.0323   -0.7500    0.0000 N   0  0  0  0  0  2  0  0  0  0  0  0
   -1.0323    0.7500    0.0000 C   0  0  0  0  0  0  0  0  0  0  0  0
   -2.1470    1.7537    0.0000 C   0  0  0  0  0  0  0  0  0  0  0  0
   -3.5736    1.2902    0.0000 O   0  0  0  0  0  0  0  0  0  0  0  0
    3.1328    0.0000    0.0000 C   0  0  0  0  0  0  0  0  0  0  0  0
    4.4318    0.7500    0.0000 N   0  0  0  0  0  4  0  0  0  0  0  0
    5.7308    1.5000    0.0000 C   0  0  0  0  0  0  0  0  0  0  0  0
    5.1818   -0.5490    0.0000 C   0  0  0  0  0  0  0  0  0  0  0  0
    3.6818    2.0490    0.0000 C   0  0  0  0  0  0  0  0  0  0  0  0
    4.4318    3.3481    0.0000 C   0  0  0  0  0  0  0  0  0  0  0  0
    3.6818    4.6471    0.0000 O   0  0  0  0  0  0  0  0  0  0  0  0
  1  2  1  0
  2  3  1  0
  3  4  2  0
  3  5  1  0
  5  6  1  0
  5  7  1  0
  7  8  1  0
  8  9  2  0
  9 10  1  0
 10 11  1  0
 11 12  1  0
 12 13  2  0
 14 15  1  0
 15 16  1  0
 15 17  1  0
 15 18  1  0
 18 19  1  0
 19 20  1  0
 12  2  1  0
 11  7  2  0
M  CHG  2  10  -1  15   1
M  END
$$$$
381693
     RDKit          2D

 13 14  0  0  0  0  0  0  0  0999 V2000
   -2.9499    4.2246    0.0000 C   0  0  0  0  0  0  0  0  0  0  0  0
   -1.8351    3.2209    0.0000 N   0  0  0  0  0  0  0  0  0  0  0  0
   -0.4086    3.6844    0.0000 C   0  0  0  0  0  0  0  0  0  0  0  0
   -0.0967    5.1517    0.0000 O   0  0  0  0  0  0  0  0  0  0  0  0
    0.7062    2.6807    0.0000 N   0  0  0  0  0  0  0  0  0  0  0  0
    2.1328    3.1443    0.0000 C   0  0  0  0  0  0  0  0  0  0  0  0
    0.3943    1.2135    0.0000 C   0  0  0  0  0  0  0  0  0  0  0  0
    1.2760    0.0000    0.0000 N   0  0  0  0  0  0  0  0  0  0  0  0
    0.3943   -1.2135    0.0000 C   0  0  0  0  0  0  0  0  0  0  0  0
   -1.0323   -0.7500    0.0000 N   0  0  0  0  0  0  0  0  0  0  0  0
   -1.0323    0.7500    0.0000 C   0  0  0  0  0  0  0  0  0  0  0  0
   -2.1470    1.7537    0.0000 C   0  0  0  0  0  0  0  0  0  0  0  0
   -3.5736    1.2902    0.0000 O   0  0  0  0  0  0  0  0  0  0  0  0
  1  2  1  0
  2  3  1  0
  3  4  2  0
  3  5  1  0
  5  6  1  0
  5  7  1  0
  7  8  1  0
  8  9  2  0
  9 10  1  0
 10 11  1  0
 11 12  1  0
 12 13  2  0
 12  2  1  0
 11  7  2  0
M  END
$$$$
794445
     RDKit          2D

 30 31  0  0  0  0  0  0  0  0999 V2000
   -2.9499    4.2246    0.0000 C   0  0  0  0  0  0  0  0  0  0  0  0
   -1.8351    3.2209    0.0000 N   0  0  0  0  0  0  0  0  0  0  0  0
   -0.4086    3.6844    0.0000 C   0  0  0  0  0  0  0  0  0  0  0  0
   -0.0967    5.1517    0.0000 O   0  0  0  0  0  0  0  0  0  0  0  0
    0.7062    2.6807    0.0000 N   0  0  0  0  0  0  0  0  0  0  0  0
    2.1328    3.1443    0.0000 C   0  0  0  0  0  0  0  0  0  0  0  0
    0.3943    1.2135    0.0000 C   0  0  0  0  0  0  0  0  0  0  0  0
    1.2760    0.0000    0.0000 N   0  0  0  0  0  0  0  0  0  0  0  0
    0.3943   -1.2135    0.0000 C   0  0  0  0  0  0  0  0  0  0  0  0
   -1.0323   -0.7500    0.0000 N   0  0  0  0  0  0  0  0  0  0  0  0
   -1.0323    0.7500    0.0000 C   0  0  0  0  0  0  0  0  0  0  0  0
   -2.1470    1.7537    0.0000 C   0  0  0  0  0  0  0  0  0  0  0  0
   -3.5736    1.2902    0.0000 O   0  0  0  0  0  0  0  0  0  0  0  0
    3.7565    4.2246    0.0000 C   0  0  0  0  0  0  0  0  0  0  0  0
    4.8712    3.2209    0.0000 N   0  0  0  0  0  0  0  0  0  0  0  0
    6.2978    3.6844    0.0000 C   0  0  0  0  0  0  0  0  0  0  0  0
    6.6097    5.1517    0.0000 O   0  0  0  0  0  0  0  0  0  0  0  0
    7.4125    2.6807    0.0000 N   0  0  0  0  0  0  0  0  0  0  0  0
    8.8391    3.1443    0.0000 C   0  0  0  0  0  0  0  0  0  0  0  0
    7.1006    1.2135    0.0000 C   0  0  0  0  0  0  0  0  0  0  0  0
    7.9823    0.0000    0.0000 N   0  0  0  0  0  0  0  0  0  0  0  0
    7.1006   -1.2135    0.0000 C   0  0  0  0  0  0  0  0  0  0  0  0
    5.6741   -0.7500    0.0000 N   0  0  0  0  0  0  0  0  0  0  0  0
    5.6741    0.7500    0.0000 C   0  0  0  0  0  0  0  0  0  0  0  0
    4.5593    1.7537    0.0000 C   0  0  0  0  0  0  0  0  0  0  0  0
    3.1328    1.2902    0.0000 O   0  0  0  0  0  0  0  0  0  0  0  0
   -1.2990    6.9017    0.0000 N   0  0  0  0  0  0  0  0  0  0  0  0
    0.0000    6.1517    0.0000 C   0  0  0  0  0  0  0  0  0  0  0  0
    1.2990    6.9017    0.0000 C   0  0  0  0  0  0  0  0  0  0  0  0
    2.5981    6.1517    0.0000 N   0  0  0  0  0  0  0  0  0  0  0  0
  1  2  1  0
  2  3  1  0
  3  4  2  0
  3  5  1  0
  5  6  1  0
  5  7  1  0
  7  8  1  0
  8  9  2  0
  9 10  1  0
 10 11  1  0
 11 12  1  0
 12 13  2  0
 14 15  1  0
 15 16  1  0
 16 17  2  0
 16 18  1  0
 18 19  1  0
 18 20  1  0
 20 21  1  0
 21 22  2  0
 22 23  1  0
 23 24  1  0
 24 25  1  0
 25 26  2  0
 27 28  1  0
 28 29  1  0
 29 30  1  0
 12  2  1  0
 11  7  2  0
 25 15  1  0
 24 20  2  0
M  END
$$$$
682597
     RDKit          2D

 18 18  0  0  0  0  0  0  0  0999 V2000
   -2.9499    4.2246    0.0000 C   0  0  0  0  0  0  0  0  0  0  0  0
   -1.8351    3.2209    0.0000 N   0  0  0  0  0  0  0  0  0  0  0  0
   -0.4086    3.6844    0.0000 C   0  0  0  0  0  0  0  0  0  0  0  0
   -0.0967    5.1517    0.0000 O   0  0  0  0  0  0  0  0  0  0  0  0
    0.7062    2.6807    0.0000 N   0  0  0  0  0  0  0  0  0  0  0  0
    2.1328    3.1443    0.0000 C   0  0  0  0  0  0  0  0  0  0  0  0
    0.3943    1.2135    0.0000 C   0  0  0  0  0  0  0  0  0  0  0  0
    1.2760    0.0000    0.0000 N   0  0  0  0  0  0  0  0  0  0  0  0
    0.3943   -1.2135    0.0000 C   0  0  0  0  0  0  0  0  0  0  0  0
   -1.0323   -0.7500    0.0000 N   0  0  0  0  0  0  0  0  0  0  0  0
   -1.0323    0.7500    0.0000 C   0  0  0  0  0  0  0  0  0  0  0  0
   -2.1470    1.7537    0.0000 C   0  0  0  0  0  0  0  0  0  0  0  0
   -3.5736    1.2902    0.0000 O   0  0  0  0  0  0  0  0  0  0  0  0
    3.1328    0.7500    0.0000 N   0  0  0  0  0  0  0  0  0  0  0  0
    4.4318    0.0000    0.0000 C   0  0  0  0  0  0  0  0  0  0  0  0
    5.7308    0.7500    0.0000 C   0  0  0  0  0  0  0  0  0  0  0  0
    5.7308    2.2500    0.0000 O   0  0  0  0  0  0  0  0  0  0  0  0
    7.0299   -0.0000    0.0000 O   0  0  0  0  0  0  0  0  0  0  0  0
  1  2  1  0
  2  3  1  0
  3  4  2  0
  3  5  1  0
  5  6  1  0
  5  7  1  0
  7  8  1  0
  8  9  2  0
  9 10  1  0
 10 11  1  0
 11 12  1  0
 12 13  2  0
 14 15  1  0
 15 16  1  0
 16 17  2  0
 16 18  1  0
 12  2  1  0
 11  7  2  0
M  END
$$$$
27029
     RDKit          2D

 20 21  0  0  0  0  0  0  0  0999 V2000
    2.1328    3.1443    0.0000 C   0  0  0  0  0  0  0  0  0  0  0  0
    0.7062    2.6807    0.0000 N   0  0  0  0  0  0  0  0  0  0  0  0
   -0.4086    3.6844    0.0000 C   0  0  0  0  0  0  0  0  0  0  0  0
   -0.0967    5.1517    0.0000 O   0  0  0  0  0  0  0  0  0  0  0  0
   -1.8351    3.2209    0.0000 N   0  0  0  0  0  0  0  0  0  0  0  0
   -2.9499    4.2246    0.0000 C   0  0  0  0  0  0  0  0  0  0  0  0
   -2.6380    5.6918    0.0000 C   0  0  0  0  0  0  0  0  0  0  0  0
   -3.7527    6.6955    0.0000 C   0  0  0  0  0  0  0  0  0  0  0  0
   -3.4408    8.1628    0.0000 C   0  0  0  0  0  0  0  0  0  0  0  0
   -4.5556    9.1664    0.0000 C   0  0  0  0  0  0  0  0  0  0  0  0
   -5.9821    8.7029    0.0000 O   0  0  0  0  0  0  0  0  0  0  0  0
   -4.2437   10.6337    0.0000 C   0  0  0  0  0  0  0  0  0  0  0  0
   -2.1470    1.7537    0.0000 C   0  0  0  0  0  0  0  0  0  0  0  0
   -3.5736    1.2902    0.0000 O   0  0  0  0  0  0  0  0  0  0  0  0
   -1.0323    0.7500    0.0000 C   0  0  0  0  0  0  0  0  0  0  0  0
    0.3943    1.2135    0.0000 C   0  0  0  0  0  0  0  0  0  0  0  0
    1.2760    0.0000    0.0000 N   0  0  0  0  0  0  0  0  0  0  0  0
    0.3943   -1.2135    0.0000 C   0  0  0  0  0  0  0  0  0  0  0  0
   -1.0323   -0.7500    0.0000 N   0  0  0  0  0  0  0  0  0  0  0  0
   -2.2458   -1.6317    0.0000 C   0  0  0  0  0  0  0  0  0  0  0  0
  1  2  1  0
  2  3  1  0
  3  4  2  0
  3  5  1  0
  5  6  1  0
  6  7  1  0
  7  8  1  0
  8  9  1  0
  9 10  1  0
 10 11  2  0
 10 12  1  0
  5 13  1  0
 13 14  2  0
 13 15  1  0
 15 16  2  0
 16 17  1  0
 17 18  2  0
 18 19  1  0
 19 20  1  0
 16  2  1  0
 19 15  1  0
M  END
$$$$
31804
     RDKit          2D

 10 10  0  0  0  0  0  0  0  0999 V2000
    2.7760    0.0000    0.0000 C   0  0  0  0  0  0  0  0  0  0  0  0
    1.2760    0.0000    0.0000 N   0  0  0  0  0  0  0  0  0  0  0  0
    0.3943    1.2135    0.0000 C   0  0  0  0  0  0  0  0  0  0  0  0
    0.8578    2.6401    0.0000 O   0  0  0  0  0  0  0  0  0  0  0  0
   -1.0323    0.7500    0.0000 O   0  0  0  0  0  0  0  0  0  0  0  0
   -1.0323   -0.7500    0.0000 C   0  0  0  0  0  0  0  0  0  0  0  0
   -1.3442   -2.2172    0.0000 C   0  0  0  0  0  0  0  0  0  0  0  0
   -2.5241   -0.5932    0.0000 C   0  0  0  0  0  0  0  0  0  0  0  0
    0.3943   -1.2135    0.0000 C   0  0  0  0  0  0  0  0  0  0  0  0
    0.8578   -2.6401    0.0000 O   0  0  0  0  0  0  0  0  0  0  0  0
  1  2  1  0
  2  3  1  0
  3  4  2  0
  3  5  1  0
  5  6  1  0
  6  7  1  0
  6  8  1  0
  6  9  1  0
  9 10  2  0
  9  2  1  0
M  END
$$$$
674665
     RDKit          2D

 17 18  0  0  0  0  0  0  0  0999 V2000
    3.0000    0.0000    0.0000 C   0  0  0  0  0  0  0  0  0  0  0  0
    1.5000    0.0000    0.0000 N   0  0  0  0  0  0  0  0  0  0  0  0
    0.7500   -1.2990    0.0000 C   0  0  0  0  0  0  0  0  0  0  0  0
    1.5000   -2.5981    0.0000 C   0  0  0  0  0  0  0  0  0  0  0  0
    0.7500   -3.8971    0.0000 C   0  0  0  0  0  0  0  0  0  0  0  0
    1.5000   -5.1962    0.0000 C   0  0  0  0  0  0  0  0  0  0  0  0
    3.0000   -5.1962    0.0000 C   0  0  0  0  0  0  0  0  0  0  0  0
    3.7500   -6.4952    0.0000 Cl  0  0  0  0  0  0  0  0  0  0  0  0
    3.7500   -3.8971    0.0000 C   0  0  0  0  0  0  0  0  0  0  0  0
    3.0000   -2.5981    0.0000 C   0  0  0  0  0  0  0  0  0  0  0  0
   -0.7500   -1.2990    0.0000 S   0  0  0  0  0  0  0  0  0  0  0  0
   -0.4895   -2.7762    0.0000 O   0  0  0  0  0  0  0  0  0  0  0  0
   -2.1595   -1.8121    0.0000 O   0  0  0  0  0  0  0  0  0  0  0  0
   -1.5000    0.0000    0.0000 C   0  0  0  0  0  0  0  0  0  0  0  0
   -0.7500    1.2990    0.0000 C   0  0  0  0  0  0  0  0  0  0  0  0
    0.7500    1.2990    0.0000 C   0  0  0  0  0  0  0  0  0  0  0  0
    1.5000    2.5981    0.0000 O   0  0  0  0  0  0  0  0  0  0  0  0
  1  2  1  0
  2  3  1  0
  3  4  1  0
  4  5  2  0
  5  6  1  0
  6  7  2  0
  7  8  1  0
  7  9  1  0
  9 10  2  0
  3 11  1  0
 11 12  2  0
 11 13  2  0
 11 14  1  0
 14 15  1  0
 15 16  1  0
 16 17  2  0
 16  2  1  0
 10  4  1  0
M  END
$$$$
453564
     RDKit          2D

 20 21  0  0  0  0  0  0  0  0999 V2000
   -1.5000   -5.1962    0.0000 C   0  0  0  0  0  0  0  0  0  0  0  0
   -0.7500   -3.8971    0.0000 N   0  0  0  0  0  0  0  0  0  0  0  0
    0.7500   -3.8971    0.0000 C   0  0  0  0  0  0  0  0  0  0  0  0
    1.5000   -5.1962    0.0000 C   0  0  0  0  0  0  0  0  0  0  0  0
    0.7500   -6.4952    0.0000 Cl  0  0  0  0  0  0  0  0  0  0  0  0
    1.5000   -2.5981    0.0000 N   0  0  0  0  0  0  0  0  0  0  0  0
    0.7500   -1.2990    0.0000 C   0  0  0  0  0  0  0  0  0  0  0  0
    1.5000    0.0000    0.0000 C   0  0  0  0  0  0  0  0  0  0  0  0
    0.7500    1.2990    0.0000 C   0  0  0  0  0  0  0  0  0  0  0  0
    1.5000    2.5981    0.0000 Cl  0  0  0  0  0  0  0  0  0  0  0  0
   -0.7500    1.2990    0.0000 C   0  0  0  0  0  0  0  0  0  0  0  0
   -1.5000    0.0000    0.0000 C   0  0  0  0  0  0  0  0  0  0  0  0
   -0.7500   -1.2990    0.0000 C   0  0  0  0  0  0  0  0  0  0  0  0
   -1.5000   -2.5981    0.0000 S   0  0  0  0  0  0  0  0  0  0  0  0
   -2.6491   -1.6339    0.0000 O   0  0  0  0  0  0  0  0  0  0  0  0
   -2.6491   -3.5623    0.0000 O   0  0  0  0  0  0  0  0  0  0  0  0
   -1.5000    2.5981    0.0000 S   0  0  0  0  0  0  0  0  0  0  0  0
   -0.2010    3.3481    0.0000 O   0  0  0  0  0  0  0  0  0  0  0  0
   -2.7990    1.8481    0.0000 O   0  0  0  0  0  0  0  0  0  0  0  0
   -2.2500    3.8971    0.0000 N   0  0  0  0  0  0  0  0  0  0  0  0
  1  2  1  0
  2  3  1  0
  3  4  1  0
  4  5  1  0
  3  6  1  0
  6  7  1  0
  7  8  2  0
  8  9  1  0
  9 10  1  0
  9 11  2  0
 11 12  1  0
 12 13  2  0
 13 14  1  0
 14 15  2  0
 14 16  2  0
 11 17  1  0
 17 18  2  0
 17 19  2  0
 17 20  1  0
 14  2  1  0
 13  7  1  0
M  END
$$$$
453832
     RDKit          2D

 25 26  0  0  0  0  0  0  0  0999 V2000
   -1.5000   -5.1962    0.0000 C   0  0  0  0  0  0  0  0  0  0  0  0
   -0.7500   -3.8971    0.0000 N   0  0  0  0  0  0  0  0  0  0  0  0
    0.7500   -3.8971    0.0000 C   0  0  0  0  0  0  0  0  0  0  0  0
    1.5000   -5.1962    0.0000 C   0  0  0  0  0  0  0  0  0  0  0  0
    0.7500   -6.4952    0.0000 S   0  0  0  0  0  0  0  0  0  0  0  0
    1.5000   -7.7942    0.0000 C   0  0  0  0  0  0  0  0  0  0  0  0
    0.7500   -9.0933    0.0000 C   0  0  0  0  0  0  0  0  0  0  0  0
    0.0000  -10.3923    0.0000 F   0  0  0  0  0  0  0  0  0  0  0  0
    2.0490   -9.8433    0.0000 F   0  0  0  0  0  0  0  0  0  0  0  0
   -0.5490   -8.3433    0.0000 F   0  0  0  0  0  0  0  0  0  0  0  0
    1.5000   -2.5981    0.0000 N   0  0  0  0  0  0  0  0  0  0  0  0
    0.7500   -1.2990    0.0000 C   0  0  0  0  0  0  0  0  0  0  0  0
    1.5000    0.0000    0.0000 C   0  0  0  0  0  0  0  0  0  0  0  0
    0.7500    1.2990    0.0000 C   0  0  0  0  0  0  0  0  0  0  0  0
    1.5000    2.5981    0.0000 Cl  0  0  0  0  0  0  0  0  0  0  0  0
   -0.7500    1.2990    0.0000 C   0  0  0  0  0  0  0  0  0  0  0  0
   -1.5000    0.0000    0.0000 C   0  0  0  0  0  0  0  0  0  0  0  0
   -0.7500   -1.2990    0.0000 C   0  0  0  0  0  0  0  0  0  0  0  0
   -1.5000   -2.5981    0.0000 S   0  0  0  0  0  0  0  0  0  0  0  0
   -2.6491   -1.6339    0.0000 O   0  0  0  0  0  0  0  0  0  0  0  0
   -2.6491   -3.5623    0.0000 O   0  0  0  0  0  0  0  0  0  0  0  0
   -1.5000    2.5981    0.0000 S   0  0  0  0  0  0  0  0  0  0  0  0
   -0.2010    3.3481    0.0000 O   0  0  0  0  0  0  0  0  0  0  0  0
   -2.7990    1.8481    0.0000 O   0  0  0  0  0  0  0  0  0  0  0  0
   -2.2500    3.8971    0.0000 N   0  0  0  0  0  0  0  0  0  0  0  0
  1  2  1  0
  2  3  1  0
  3  4  1  0
  4  5  1  0
  5  6  1  0
  6  7  1  0
  7  8  1  0
  7  9  1  0
  7 10  1  0
  3 11  1  0
 11 12  1  0
 12 13  2  0
 13 14  1  0
 14 15  1  0
 14 16  2  0
 16 17  1  0
 17 18  2  0
 18 19  1  0
 19 20  2  0
 19 21  2  0
 16 22  1  0
 22 23  2  0
 22 24  2  0
 22 25  1  0
 19  2  1  0
 18 12  1  0
M  END
$$$$
54547
     RDKit          2D

 23 26  0  0  0  0  0  0  0  0999 V2000
   -5.0099   -5.5279    0.0000 C   0  0  0  0  0  0  0  0  0  0  0  0
   -5.8051   -5.5834    0.0000 N   0  0  0  0  0  0  0  0  0  0  0  0
   -6.1170   -7.0506    0.0000 C   0  0  0  0  0  0  0  0  0  0  0  0
   -7.5436   -7.5142    0.0000 C   0  0  0  0  0  0  0  0  0  0  0  0
   -8.6583   -6.5105    0.0000 C   0  0  0  0  0  0  0  0  0  0  0  0
   -8.3464   -5.0433    0.0000 C   0  0  0  0  0  0  0  0  0  0  0  0
   -6.9199   -4.5797    0.0000 C   0  0  0  0  0  0  0  0  0  0  0  0
   -5.4933   -4.1162    0.0000 C   0  0  0  0  0  0  0  0  0  0  0  0
   -4.3786   -5.1199    0.0000 C   0  0  0  0  0  0  0  0  0  0  0  0
   -4.6904   -6.5871    0.0000 C   0  0  0  0  0  0  0  0  0  0  0  0
   -2.9520   -4.6564    0.0000 N   0  0  0  0  0  0  0  0  0  0  0  0
   -2.6401   -3.1891    0.0000 C   0  0  0  0  0  0  0  0  0  0  0  0
   -3.7548   -2.1855    0.0000 O   0  0  0  0  0  0  0  0  0  0  0  0
   -1.2135   -2.7256    0.0000 C   0  0  0  0  0  0  0  0  0  0  0  0
   -0.0000   -3.6073    0.0000 N   0  0  0  0  0  0  0  0  0  0  0  0
    1.2135   -2.7256    0.0000 N   0  0  0  0  0  0  0  0  0  0  0  0
    2.6401   -3.1891    0.0000 C   0  0  0  0  0  0  0  0  0  0  0  0
    0.7500   -1.2990    0.0000 C   0  0  0  0  0  0  0  0  0  0  0  0
    1.5000    0.0000    0.0000 C   0  0  0  0  0  0  0  0  0  0  0  0
    0.7500    1.2990    0.0000 C   0  0  0  0  0  0  0  0  0  0  0  0
   -0.7500    1.2990    0.0000 C   0  0  0  0  0  0  0  0  0  0  0  0
   -1.5000    0.0000    0.0000 C   0  0  0  0  0  0  0  0  0  0  0  0
   -0.7500   -1.2990    0.0000 C   0  0  0  0  0  0  0  0  0  0  0  0
  1  2  1  0
  2  3  1  0
  3  4  1  0
  4  5  1  0
  5  6  1  0
  6  7  1  0
  7  8  1  0
  8  9  1  0
  9 10  1  0
  9 11  1  0
 11 12  1  0
 12 13  2  0
 12 14  1  0
 14 15  2  0
 15 16  1  0
 16 17  1  0
 16 18  1  0
 18 19  2  0
 19 20  1  0
 20 21  2  0
 21 22  1  0
 22 23  2  0
  7  2  1  0
 10  3  1  0
 23 14  1  0
 23 18  1  0
M  END
$$$$
112090
     RDKit          2D

 10 10  0  0  0  0  0  0  0  0999 V2000
    3.0000    0.0000    0.0000 C   0  0  0  0  0  0  0  0  0  0  0  0
    1.5000    0.0000    0.0000 N   0  0  0  0  0  0  0  0  0  0  0  0
    0.7500   -1.2990    0.0000 C   0  0  0  0  0  0  0  0  0  0  0  0
   -0.7500   -1.2990    0.0000 C   0  0  0  0  0  0  0  0  0  0  0  0
   -1.5000    0.0000    0.0000 C   0  0  0  0  0  0  0  0  0  0  0  0
   -3.0000    0.0000    0.0000 O   0  0  0  0  0  0  0  0  0  0  0  0
   -0.7500    1.2990    0.0000 C   0  0  0  0  0  0  0  0  0  0  0  0
    0.7500    1.2990    0.0000 C   0  0  0  0  0  0  0  0  0  0  0  0
    1.5000    2.5981    0.0000 C   0  0  0  0  0  0  0  0  0  0  0  0
   -1.5000    2.5981    0.0000 O   0  0  0  0  0  0  0  0  0  0  0  0
  1  2  1  0
  2  3  1  0
  3  4  2  0
  4  5  1  0
  5  6  2  0
  5  7  1  0
  7  8  2  0
  8  9  1  0
  7 10  1  0
  8  2  1  0
M  END
$$$$
421089
     RDKit          2D

  7  7  0  0  0  0  0  0  0  0999 V2000
    2.7760    0.0000    0.0000 C   0  0  0  0  0  0  0  0  0  0  0  0
    1.2760    0.0000    0.0000 N   0  0  0  0  0  0  0  0  0  0  0  0
    0.3943    1.2135    0.0000 C   0  0  0  0  0  0  0  0  0  0  0  0
   -1.0323    0.7500    0.0000 C   0  0  0  0  0  0  0  0  0  0  0  0
   -1.0323   -0.7500    0.0000 N   0  0  0  0  0  0  0  0  0  0  0  0
    0.3943   -1.2135    0.0000 C   0  0  0  0  0  0  0  0  0  0  0  0
    0.8578   -2.6401    0.0000 S   0  0  0  0  0  0  0  0  0  0  0  0
  1  2  1  0
  2  3  1  0
  3  4  2  0
  4  5  1  0
  5  6  1  0
  6  7  2  0
  6  2  1  0
M  END
$$$$
44920
     RDKit          2D

 29 34  0  0  0  0  0  0  0  0999 V2000
   -5.6381   -7.5395    0.0000 C   0  0  0  0  0  0  0  0  0  0  0  0
   -4.2677   -6.9294    0.0000 N   0  0  0  0  0  0  0  0  0  0  0  0
   -3.0542   -7.8111    0.0000 C   0  0  0  0  0  0  0  0  0  0  0  0
   -1.6839   -7.2010    0.0000 C   0  0  0  0  0  0  0  0  0  0  0  0
   -0.4704   -8.0826    0.0000 O   0  0  0  0  0  0  0  0  0  0  0  0
   -1.5271   -5.7092    0.0000 N   0  0  0  0  0  0  0  0  0  0  0  0
   -2.7406   -4.8275    0.0000 C   0  0  0  0  0  0  0  0  0  0  0  0
   -2.5838   -3.3357    0.0000 C   0  0  0  0  0  0  0  0  0  0  0  0
   -1.2135   -2.7256    0.0000 C   0  0  0  0  0  0  0  0  0  0  0  0
   -0.0000   -3.6073    0.0000 C   0  0  0  0  0  0  0  0  0  0  0  0
    1.2135   -2.7256    0.0000 N   0  0  0  0  0  0  0  0  0  0  0  0
    0.7500   -1.2990    0.0000 C   0  0  0  0  0  0  0  0  0  0  0  0
    1.5000    0.0000    0.0000 C   0  0  0  0  0  0  0  0  0  0  0  0
    0.7500    1.2990    0.0000 C   0  0  0  0  0  0  0  0  0  0  0  0
   -0.7500    1.2990    0.0000 C   0  0  0  0  0  0  0  0  0  0  0  0
   -1.5000    0.0000    0.0000 C   0  0  0  0  0  0  0  0  0  0  0  0
   -0.7500   -1.2990    0.0000 C   0  0  0  0  0  0  0  0  0  0  0  0
   -0.1568   -5.0991    0.0000 C   0  0  0  0  0  0  0  0  0  0  0  0
    1.0567   -5.9808    0.0000 C   0  0  0  0  0  0  0  0  0  0  0  0
    2.4271   -5.3707    0.0000 C   0  0  0  0  0  0  0  0  0  0  0  0
    3.6406   -6.2523    0.0000 C   0  0  0  0  0  0  0  0  0  0  0  0
    3.4838   -7.7441    0.0000 C   0  0  0  0  0  0  0  0  0  0  0  0
    4.4875   -8.8588    0.0000 O   0  0  0  0  0  0  0  0  0  0  0  0
    3.7375  -10.1579    0.0000 C   0  0  0  0  0  0  0  0  0  0  0  0
    2.2703   -9.8460    0.0000 O   0  0  0  0  0  0  0  0  0  0  0  0
    2.1135   -8.3542    0.0000 C   0  0  0  0  0  0  0  0  0  0  0  0
    0.8999   -7.4725    0.0000 C   0  0  0  0  0  0  0  0  0  0  0  0
   -4.1110   -5.4376    0.0000 C   0  0  0  0  0  0  0  0  0  0  0  0
   -5.3245   -4.5559    0.0000 O   0  0  0  0  0  0  0  0  0  0  0  0
  1  2  1  0
  2  3  1  0
  3  4  1  0
  4  5  2  0
  4  6  1  0
  6  7  1  0
  7  8  1  1
  8  9  1  0
  9 10  2  0
 10 11  1  0
 11 12  1  0
 12 13  2  0
 13 14  1  0
 14 15  2  0
 15 16  1  0
 16 17  2  0
 10 18  1  0
 18 19  1  1
 19 20  2  0
 20 21  1  0
 21 22  2  0
 22 23  1  0
 23 24  1  0
 24 25  1  0
 25 26  1  0
 26 27  2  0
  7 28  1  0
 28 29  2  0
 28  2  1  0
 18  6  1  0
 17  9  1  0
 17 12  1  0
 27 19  1  0
 26 22  1  0
M  END
$$$$
11005
     RDKit          2D

 22 25  0  0  0  0  0  0  0  0999 V2000
    7.5348   -1.1367    0.0000 C   0  0  0  0  0  0  0  0  0  0  0  0
    6.0724   -1.4704    0.0000 N   0  0  0  0  0  0  0  0  0  0  0  0
    5.6303   -2.9038    0.0000 C   0  0  0  0  0  0  0  0  0  0  0  0
    4.1679   -3.2376    0.0000 C   0  0  0  0  0  0  0  0  0  0  0  0
    3.1476   -2.1380    0.0000 C   0  0  0  0  0  0  0  0  0  0  0  0
    1.6852   -2.4718    0.0000 C   0  0  0  0  0  0  0  0  0  0  0  0
    0.7500   -1.2990    0.0000 C   0  0  0  0  0  0  0  0  0  0  0  0
    1.5000    0.0000    0.0000 C   0  0  0  0  0  0  0  0  0  0  0  0
    0.7500    1.2990    0.0000 C   0  0  0  0  0  0  0  0  0  0  0  0
   -0.7500    1.2990    0.0000 C   0  0  0  0  0  0  0  0  0  0  0  0
   -1.5000    0.0000    0.0000 C   0  0  0  0  0  0  0  0  0  0  0  0
   -0.7500   -1.2990    0.0000 C   0  0  0  0  0  0  0  0  0  0  0  0
   -1.6852   -2.4718    0.0000 C   0  0  0  0  0  0  0  0  0  0  0  0
   -1.3515   -3.9342    0.0000 C   0  0  0  0  0  0  0  0  0  0  0  0
    0.0000   -4.5850    0.0000 C   0  0  0  0  0  0  0  0  0  0  0  0
   -0.1121   -6.0808    0.0000 C   0  0  0  0  0  0  0  0  0  0  0  0
    1.1273   -6.9258    0.0000 C   0  0  0  0  0  0  0  0  0  0  0  0
    2.4787   -6.2750    0.0000 C   0  0  0  0  0  0  0  0  0  0  0  0
    2.5908   -4.7792    0.0000 C   0  0  0  0  0  0  0  0  0  0  0  0
    1.3515   -3.9342    0.0000 C   0  0  0  0  0  0  0  0  0  0  0  0
    3.5898   -0.7046    0.0000 C   0  0  0  0  0  0  0  0  0  0  0  0
    5.0522   -0.3709    0.0000 C   0  0  0  0  0  0  0  0  0  0  0  0
  1  2  1  0
  2  3  1  0
  3  4  1  0
  4  5  1  0
  5  6  2  0
  6  7  1  0
  7  8  2  0
  8  9  1  0
  9 10  2  0
 10 11  1  0
 11 12  2  0
 12 13  1  0
 13 14  2  0
 14 15  1  0
 15 16  2  0
 16 17  1  0
 17 18  2  0
 18 19  1  0
 19 20  2  0
  5 21  1  0
 21 22  1  0
 22  2  1  0
 20  6  1  0
 12  7  1  0
 20 15  1  0
M  END
$$$$
89672
     RDKit          2D

 22 25  0  0  0  0  0  0  0  0999 V2000
    7.5348   -1.1367    0.0000 C   0  0  0  0  0  0  0  0  0  0  0  0
    6.0724   -1.4704    0.0000 N   0  0  0  0  0  0  0  0  0  0  0  0
    5.6303   -2.9038    0.0000 C   0  0  0  0  0  0  0  0  0  0  0  0
    4.1679   -3.2376    0.0000 C   0  0  0  0  0  0  0  0  0  0  0  0
    3.1476   -2.1380    0.0000 C   0  0  0  0  0  0  0  0  0  0  0  0
    1.6852   -2.4718    0.0000 C   0  0  0  0  0  0  0  0  0  0  0  0
    0.7500   -1.2990    0.0000 C   0  0  0  0  0  0  0  0  0  0  0  0
    1.5000    0.0000    0.0000 C   0  0  0  0  0  0  0  0  0  0  0  0
    0.7500    1.2990    0.0000 C   0  0  0  0  0  0  0  0  0  0  0  0
   -0.7500    1.2990    0.0000 C   0  0  0  0  0  0  0  0  0  0  0  0
   -1.5000    0.0000    0.0000 C   0  0  0  0  0  0  0  0  0  0  0  0
   -0.7500   -1.2990    0.0000 C   0  0  0  0  0  0  0  0  0  0  0  0
   -1.6852   -2.4718    0.0000 C   0  0  0  0  0  0  0  0  0  0  0  0
   -1.3515   -3.9342    0.0000 C   0  0  0  0  0  0  0  0  0  0  0  0
    0.0000   -4.5850    0.0000 C   0  0  0  0  0  0  0  0  0  0  0  0
   -0.1121   -6.0808    0.0000 C   0  0  0  0  0  0  0  0  0  0  0  0
    1.1273   -6.9258    0.0000 C   0  0  0  0  0  0  0  0  0  0  0  0
    2.4787   -6.2750    0.0000 C   0  0  0  0  0  0  0  0  0  0  0  0
    2.5908   -4.7792    0.0000 N   0  0  0  0  0  0  0  0  0  0  0  0
    1.3515   -3.9342    0.0000 C   0  0  0  0  0  0  0  0  0  0  0  0
    3.5898   -0.7046    0.0000 C   0  0  0  0  0  0  0  0  0  0  0  0
    5.0522   -0.3709    0.0000 C   0  0  0  0  0  0  0  0  0  0  0  0
  1  2  1  0
  2  3  1  0
  3  4  1  0
  4  5  1  0
  5  6  2  0
  6  7  1  0
  7  8  2  0
  8  9  1  0
  9 10  2  0
 10 11  1  0
 11 12  2  0
 12 13  1  0
 13 14  1  0
 14 15  1  0
 15 16  2  0
 16 17  1  0
 17 18  2  0
 18 19  1  0
 19 20  2  0
  5 21  1  0
 21 22  1  0
 22  2  1  0
 20  6  1  0
 12  7  1  0
 20 15  1  0
M  END
$$$$
1926757
     RDKit          2D

 38 39  0  0  0  0  0  0  0  0999 V2000
    7.5348   -1.1367    0.0000 C   0  0  0  0  0  0  0  0  0  0  0  0
    6.0724   -1.4704    0.0000 N   0  0  0  0  0  0  0  0  0  0  0  0
    5.6303   -2.9038    0.0000 C   0  0  0  0  0  0  0  0  0  0  0  0
    4.1679   -3.2376    0.0000 C   0  0  0  0  0  0  0  0  0  0  0  0
    3.1476   -2.1380    0.0000 C   0  0  0  0  0  0  0  0  0  0  0  0
    1.6852   -2.4718    0.0000 C   0  0  0  0  0  0  0  0  0  0  0  0
    0.7500   -1.2990    0.0000 C   0  0  0  0  0  0  0  0  0  0  0  0
    1.5000    0.0000    0.0000 C   0  0  0  0  0  0  0  0  0  0  0  0
    0.7500    1.2990    0.0000 C   0  0  0  0  0  0  0  0  0  0  0  0
   -0.7500    1.2990    0.0000 C   0  0  0  0  0  0  0  0  0  0  0  0
   -1.5000    0.0000    0.0000 C   0  0  0  0  0  0  0  0  0  0  0  0
   -0.7500   -1.2990    0.0000 C   0  0  0  0  0  0  0  0  0  0  0  0
   -1.6852   -2.4718    0.0000 C   0  0  0  0  0  0  0  0  0  0  0  0
   -1.3515   -3.9342    0.0000 C   0  0  0  0  0  0  0  0  0  0  0  0
    0.0000   -4.5850    0.0000 C   0  0  0  0  0  0  0  0  0  0  0  0
   -0.1121   -6.0808    0.0000 C   0  0  0  0  0  0  0  0  0  0  0  0
    1.1273   -6.9258    0.0000 C   0  0  0  0  0  0  0  0  0  0  0  0
    2.4787   -6.2750    0.0000 C   0  0  0  0  0  0  0  0  0  0  0  0
    2.5908   -4.7792    0.0000 N   0  0  0  0  0  0  0  0  0  0  0  0
    1.3515   -3.9342    0.0000 C   0  0  0  0  0  0  0  0  0  0  0  0
    3.5898   -0.7046    0.0000 C   0  0  0  0  0  0  0  0  0  0  0  0
    5.0522   -0.3709    0.0000 C   0  0  0  0  0  0  0  0  0  0  0  0
   -2.2500    3.5981    0.0000 O   0  0  0  0  0  0  0  0  0  0  0  0
   -0.7500    3.5981    0.0000 C   0  0  0  0  0  0  0  0  0  0  0  0
    0.0000    2.2990    0.0000 O   0  0  0  0  0  0  0  0  0  0  0  0
    0.0000    4.8971    0.0000 C   0  0  0  0  0  0  0  0  0  0  0  0
    1.5000    4.8971    0.0000 C   0  0  0  0  0  0  0  0  0  0  0  0
    2.2500    3.5981    0.0000 C   0  0  0  0  0  0  0  0  0  0  0  0
    1.5000    2.2990    0.0000 O   0  0  0  0  0  0  0  0  0  0  0  0
    3.7500    3.5981    0.0000 O   0  0  0  0  0  0  0  0  0  0  0  0
    8.5348   -1.2990    0.0000 O   0  0  0  0  0  0  0  0  0  0  0  0
   10.0348   -1.2990    0.0000 C   0  0  0  0  0  0  0  0  0  0  0  0
   10.7848   -2.5981    0.0000 O   0  0  0  0  0  0  0  0  0  0  0  0
   10.7848    0.0000    0.0000 C   0  0  0  0  0  0  0  0  0  0  0  0
   12.2848    0.0000    0.0000 C   0  0  0  0  0  0  0  0  0  0  0  0
   13.0348   -1.2990    0.0000 C   0  0  0  0  0  0  0  0  0  0  0  0
   12.2848   -2.5981    0.0000 O   0  0  0  0  0  0  0  0  0  0  0  0
   14.5348   -1.2990    0.0000 O   0  0  0  0  0  0  0  0  0  0  0  0
  1  2  1  0
  2  3  1  0
  3  4  1  0
  4  5  1  0
  5  6  2  0
  6  7  1  0
  7  8  2  0
  8  9  1  0
  9 10  2  0
 10 11  1  0
 11 12  2  0
 12 13  1  0
 13 14  1  0
 14 15  1  0
 15 16  2  0
 16 17  1  0
 17 18  2  0
 18 19  1  0
 19 20  2  0
  5 21  1  0
 21 22  1  0
 23 24  1  0
 24 25  2  0
 24 26  1  0
 26 27  2  0
 27 28  1  0
 28 29  2  0
 28 30  1  0
 31 32  1  0
 32 33  2  0
 32 34  1  0
 34 35  2  0
 35 36  1  0
 36 37  2  0
 36 38  1  0
 22  2  1  0
 20  6  1  0
 12  7  1  0
 20 15  1  0
M  END
$$$$
418482
     RDKit          2D

 21 23  0  0  0  0  0  0  0  0999 V2000
    3.0000    0.0000    0.0000 C   0  0  0  0  0  0  0  0  0  0  0  0
    1.5000    0.0000    0.0000 N   0  0  0  0  0  0  0  0  0  0  0  0
    0.7500   -1.2990    0.0000 C   0  0  0  0  0  0  0  0  0  0  0  0
   -0.7500   -1.2990    0.0000 C   0  0  0  0  0  0  0  0  0  0  0  0
   -1.5000    0.0000    0.0000 C   0  0  0  0  0  0  0  0  0  0  0  0
   -0.7500    1.2990    0.0000 C   0  0  0  0  0  0  0  0  0  0  0  0
    0.7500    1.2990    0.0000 C   0  0  0  0  0  0  0  0  0  0  0  0
   -3.0000    0.0000    0.0000 O   0  0  0  0  0  0  0  0  0  0  0  0
   -3.7500    1.2990    0.0000 C   0  0  0  0  0  0  0  0  0  0  0  0
   -5.2500    1.2990    0.0000 C   0  0  0  0  0  0  0  0  0  0  0  0
   -6.0000    2.5981    0.0000 C   0  0  0  0  0  0  0  0  0  0  0  0
   -7.5000    2.5981    0.0000 C   0  0  0  0  0  0  0  0  0  0  0  0
   -8.2500    1.2990    0.0000 C   0  0  0  0  0  0  0  0  0  0  0  0
   -7.5000    0.0000    0.0000 C   0  0  0  0  0  0  0  0  0  0  0  0
   -6.0000    0.0000    0.0000 C   0  0  0  0  0  0  0  0  0  0  0  0
   -3.0000    2.5981    0.0000 C   0  0  0  0  0  0  0  0  0  0  0  0
   -1.5000    2.5981    0.0000 C   0  0  0  0  0  0  0  0  0  0  0  0
   -0.7500    3.8971    0.0000 C   0  0  0  0  0  0  0  0  0  0  0  0
   -1.5000    5.1962    0.0000 C   0  0  0  0  0  0  0  0  0  0  0  0
   -3.0000    5.1962    0.0000 C   0  0  0  0  0  0  0  0  0  0  0  0
   -3.7500    3.8971    0.0000 C   0  0  0  0  0  0  0  0  0  0  0  0
  1  2  1  0
  2  3  1  0
  3  4  1  0
  4  5  1  0
  5  6  1  0
  6  7  1  0
  5  8  1  0
  8  9  1  0
  9 10  1  0
 10 11  2  0
 11 12  1  0
 12 13  2  0
 13 14  1  0
 14 15  2  0
  9 16  1  0
 16 17  2  0
 17 18  1  0
 18 19  2  0
 19 20  1  0
 20 21  2  0
  7  2  1  0
 15 10  1  0
 21 16  1  0
M  END
$$$$
674910
     RDKit          2D

 21 24  0  0  0  0  0  0  0  0999 V2000
    4.0978   -7.7629    0.0000 C   0  0  0  0  0  0  0  0  0  0  0  0
    4.2546   -6.2711    0.0000 N   0  0  0  0  0  0  0  0  0  0  0  0
    5.5537   -5.5211    0.0000 C   0  0  0  0  0  0  0  0  0  0  0  0
    5.2418   -4.0539    0.0000 C   0  0  0  0  0  0  0  0  0  0  0  0
    3.7500   -3.8971    0.0000 C   0  0  0  0  0  0  0  0  0  0  0  0
    3.0000   -2.5981    0.0000 C   0  0  0  0  0  0  0  0  0  0  0  0
    1.5000   -2.5981    0.0000 N   0  0  0  0  0  0  0  0  0  0  0  0
    0.7500   -1.2990    0.0000 C   0  0  0  0  0  0  0  0  0  0  0  0
    1.5000    0.0000    0.0000 C   0  0  0  0  0  0  0  0  0  0  0  0
    0.7500    1.2990    0.0000 C   0  0  0  0  0  0  0  0  0  0  0  0
   -0.7500    1.2990    0.0000 C   0  0  0  0  0  0  0  0  0  0  0  0
   -1.5000    0.0000    0.0000 C   0  0  0  0  0  0  0  0  0  0  0  0
   -0.7500   -1.2990    0.0000 C   0  0  0  0  0  0  0  0  0  0  0  0
   -1.5000   -2.5981    0.0000 S   0  0  0  0  0  0  0  0  0  0  0  0
   -0.7500   -3.8971    0.0000 C   0  0  0  0  0  0  0  0  0  0  0  0
   -1.5000   -5.1962    0.0000 C   0  0  0  0  0  0  0  0  0  0  0  0
   -0.7500   -6.4952    0.0000 C   0  0  0  0  0  0  0  0  0  0  0  0
    0.7500   -6.4952    0.0000 C   0  0  0  0  0  0  0  0  0  0  0  0
    1.5000   -5.1962    0.0000 C   0  0  0  0  0  0  0  0  0  0  0  0
    0.7500   -3.8971    0.0000 C   0  0  0  0  0  0  0  0  0  0  0  0
    3.1399   -5.2674    0.0000 C   0  0  0  0  0  0  0  0  0  0  0  0
  1  2  1  0
  2  3  1  0
  3  4  1  0
  4  5  1  0
  5  6  1  0
  6  7  1  0
  7  8  1  0
  8  9  2  0
  9 10  1  0
 10 11  2  0
 11 12  1  0
 12 13  2  0
 13 14  1  0
 14 15  1  0
 15 16  2  0
 16 17  1  0
 17 18  2  0
 18 19  1  0
 19 20  2  0
  5 21  1  0
 21  2  1  0
 20  7  1  0
 13  8  1  0
 20 15  1  0
M  END
$$$$
675293
     RDKit          2D

 22 25  0  0  0  0  0  0  0  0999 V2000
    7.5000   -5.1962    0.0000 C   0  0  0  0  0  0  0  0  0  0  0  0
    6.0000   -5.1962    0.0000 N   0  0  0  0  0  0  0  0  0  0  0  0
    5.2500   -6.4952    0.0000 C   0  0  0  0  0  0  0  0  0  0  0  0
    3.7500   -6.4952    0.0000 C   0  0  0  0  0  0  0  0  0  0  0  0
    3.0000   -5.1962    0.0000 C   0  0  0  0  0  0  0  0  0  0  0  0
    3.7500   -3.8971    0.0000 C   0  0  0  0  0  0  0  0  0  0  0  0
    3.0000   -2.5981    0.0000 C   0  0  0  0  0  0  0  0  0  0  0  0
    1.5000   -2.5981    0.0000 C   0  0  0  0  0  0  0  0  0  0  0  0
    0.7500   -1.2990    0.0000 C   0  0  0  0  0  0  0  0  0  0  0  0
    1.5000    0.0000    0.0000 C   0  0  0  0  0  0  0  0  0  0  0  0
    0.7500    1.2990    0.0000 C   0  0  0  0  0  0  0  0  0  0  0  0
   -0.7500    1.2990    0.0000 C   0  0  0  0  0  0  0  0  0  0  0  0
   -1.5000    0.0000    0.0000 C   0  0  0  0  0  0  0  0  0  0  0  0
   -0.7500   -1.2990    0.0000 C   0  0  0  0  0  0  0  0  0  0  0  0
   -1.5000   -2.5981    0.0000 S   0  0  0  0  0  0  0  0  0  0  0  0
   -0.7500   -3.8971    0.0000 C   0  0  0  0  0  0  0  0  0  0  0  0
   -1.5000   -5.1962    0.0000 C   0  0  0  0  0  0  0  0  0  0  0  0
   -0.7500   -6.4952    0.0000 C   0  0  0  0  0  0  0  0  0  0  0  0
    0.7500   -6.4952    0.0000 C   0  0  0  0  0  0  0  0  0  0  0  0
    1.5000   -5.1962    0.0000 C   0  0  0  0  0  0  0  0  0  0  0  0
    0.7500   -3.8971    0.0000 C   0  0  0  0  0  0  0  0  0  0  0  0
    5.2500   -3.8971    0.0000 C   0  0  0  0  0  0  0  0  0  0  0  0
  1  2  1  0
  2  3  1  0
  3  4  1  0
  4  5  1  0
  5  6  1  0
  6  7  1  0
  7  8  1  0
  8  9  1  0
  9 10  2  0
 10 11  1  0
 11 12  2  0
 12 13  1  0
 13 14  2  0
 14 15  1  0
 15 16  1  0
 16 17  2  0
 17 18  1  0
 18 19  2  0
 19 20  1  0
 20 21  2  0
  6 22  1  0
 22  2  1  0
 21  8  1  0
 14  9  1  0
 21 16  1  0
M  END
$$$$
148004
     RDKit          2D

 26 29  0  0  0  0  0  0  0  0999 V2000
    5.2500   -1.2990    0.0000 C   0  0  0  0  0  0  0  0  0  0  0  0
    6.0000   -2.5981    0.0000 N   0  0  0  0  0  0  0  0  0  0  0  0
    7.5000   -2.5981    0.0000 C   0  0  0  0  0  0  0  0  0  0  0  0
    8.2500   -3.8971    0.0000 C   0  0  0  0  0  0  0  0  0  0  0  0
    7.5000   -5.1962    0.0000 C   0  0  0  0  0  0  0  0  0  0  0  0
    6.0000   -5.1962    0.0000 C   0  0  0  0  0  0  0  0  0  0  0  0
    5.2500   -3.8971    0.0000 C   0  0  0  0  0  0  0  0  0  0  0  0
    3.7500   -3.8971    0.0000 C   0  0  0  0  0  0  0  0  0  0  0  0
    3.0000   -2.5981    0.0000 C   0  0  0  0  0  0  0  0  0  0  0  0
    1.5000   -2.5981    0.0000 N   0  0  0  0  0  0  0  0  0  0  0  0
    0.7500   -1.2990    0.0000 C   0  0  0  0  0  0  0  0  0  0  0  0
    1.5000    0.0000    0.0000 C   0  0  0  0  0  0  0  0  0  0  0  0
    0.7500    1.2990    0.0000 C   0  0  0  0  0  0  0  0  0  0  0  0
   -0.7500    1.2990    0.0000 C   0  0  0  0  0  0  0  0  0  0  0  0
   -1.5000    0.0000    0.0000 C   0  0  0  0  0  0  0  0  0  0  0  0
   -0.7500   -1.2990    0.0000 C   0  0  0  0  0  0  0  0  0  0  0  0
   -1.5000   -2.5981    0.0000 S   0  0  0  0  0  0  0  0  0  0  0  0
   -0.7500   -3.8971    0.0000 C   0  0  0  0  0  0  0  0  0  0  0  0
   -1.5000   -5.1962    0.0000 C   0  0  0  0  0  0  0  0  0  0  0  0
   -0.7500   -6.4952    0.0000 C   0  0  0  0  0  0  0  0  0  0  0  0
    0.7500   -6.4952    0.0000 C   0  0  0  0  0  0  0  0  0  0  0  0
    1.5000   -5.1962    0.0000 C   0  0  0  0  0  0  0  0  0  0  0  0
    0.7500   -3.8971    0.0000 C   0  0  0  0  0  0  0  0  0  0  0  0
    1.5000   -7.7942    0.0000 S   0  0  0  0  0  3  0  0  0  0  0  0
    0.7500   -9.0933    0.0000 C   0  0  0  0  0  0  0  0  0  0  0  0
    3.0000   -7.7942    0.0000 O   0  0  0  0  0  1  0  0  0  0  0  0
  1  2  1  0
  2  3  1  0
  3  4  1  0
  4  5  1  0
  5  6  1  0
  6  7  1  0
  7  8  1  0
  8  9  1  0
  9 10  1  0
 10 11  1  0
 11 12  2  0
 12 13  1  0
 13 14  2  0
 14 15  1  0
 15 16  2  0
 16 17  1  0
 17 18  1  0
 18 19  2  0
 19 20  1  0
 20 21  2  0
 21 22  1  0
 22 23  2  0
 21 24  1  0
 24 25  1  0
 24 26  1  0
  7  2  1  0
 23 10  1  0
 16 11  1  0
 23 18  1  0
M  CHG  2  24   1  26  -1
M  END
$$$$
675003
     RDKit          2D

 36 39  0  0  0  0  0  0  0  0999 V2000
    5.2500   -1.2990    0.0000 C   0  0  0  0  0  0  0  0  0  0  0  0
    6.0000   -2.5981    0.0000 N   0  0  0  0  0  0  0  0  0  0  0  0
    7.5000   -2.5981    0.0000 C   0  0  0  0  0  0  0  0  0  0  0  0
    8.2500   -3.8971    0.0000 C   0  0  0  0  0  0  0  0  0  0  0  0
    7.5000   -5.1962    0.0000 C   0  0  0  0  0  0  0  0  0  0  0  0
    6.0000   -5.1962    0.0000 C   0  0  0  0  0  0  0  0  0  0  0  0
    5.2500   -3.8971    0.0000 C   0  0  0  0  0  0  0  0  0  0  0  0
    3.7500   -3.8971    0.0000 C   0  0  0  0  0  0  0  0  0  0  0  0
    3.0000   -2.5981    0.0000 C   0  0  0  0  0  0  0  0  0  0  0  0
    1.5000   -2.5981    0.0000 N   0  0  0  0  0  0  0  0  0  0  0  0
    0.7500   -1.2990    0.0000 C   0  0  0  0  0  0  0  0  0  0  0  0
    1.5000    0.0000    0.0000 C   0  0  0  0  0  0  0  0  0  0  0  0
    0.7500    1.2990    0.0000 C   0  0  0  0  0  0  0  0  0  0  0  0
   -0.7500    1.2990    0.0000 C   0  0  0  0  0  0  0  0  0  0  0  0
   -1.5000    0.0000    0.0000 C   0  0  0  0  0  0  0  0  0  0  0  0
   -0.7500   -1.2990    0.0000 C   0  0  0  0  0  0  0  0  0  0  0  0
   -1.5000   -2.5981    0.0000 S   0  0  0  0  0  0  0  0  0  0  0  0
   -0.7500   -3.8971    0.0000 C   0  0  0  0  0  0  0  0  0  0  0  0
   -1.5000   -5.1962    0.0000 C   0  0  0  0  0  0  0  0  0  0  0  0
   -0.7500   -6.4952    0.0000 C   0  0  0  0  0  0  0  0  0  0  0  0
    0.7500   -6.4952    0.0000 C   0  0  0  0  0  0  0  0  0  0  0  0
    1.5000   -5.1962    0.0000 C   0  0  0  0  0  0  0  0  0  0  0  0
    0.7500   -3.8971    0.0000 C   0  0  0  0  0  0  0  0  0  0  0  0
    1.5000   -7.7942    0.0000 S   0  0  0  0  0  3  0  0  0  0  0  0
    0.7500   -9.0933    0.0000 C   0  0  0  0  0  0  0  0  0  0  0  0
    3.0000   -7.7942    0.0000 O   0  0  0  0  0  1  0  0  0  0  0  0
   15.2500    0.0000    0.0000 O   0  0  0  0  0  0  0  0  0  0  0  0
   13.7500    0.0000    0.0000 S   0  0  0  0  0  0  0  0  0  0  0  0
   13.7500   -1.5000    0.0000 O   0  0  0  0  0  0  0  0  0  0  0  0
   13.7500    1.5000    0.0000 O   0  0  0  0  0  0  0  0  0  0  0  0
   12.2500    0.0000    0.0000 C   0  0  0  0  0  0  0  0  0  0  0  0
   11.5000   -1.2990    0.0000 C   0  0  0  0  0  0  0  0  0  0  0  0
   10.0000   -1.2990    0.0000 C   0  0  0  0  0  0  0  0  0  0  0  0
    9.2500    0.0000    0.0000 C   0  0  0  0  0  0  0  0  0  0  0  0
   10.0000    1.2990    0.0000 C   0  0  0  0  0  0  0  0  0  0  0  0
   11.5000    1.2990    0.0000 C   0  0  0  0  0  0  0  0  0  0  0  0
  1  2  1  0
  2  3  1  0
  3  4  1  0
  4  5  1  0
  5  6  1  0
  6  7  1  0
  7  8  1  0
  8  9  1  0
  9 10  1  0
 10 11  1  0
 11 12  2  0
 12 13  1  0
 13 14  2  0
 14 15  1  0
 15 16  2  0
 16 17  1  0
 17 18  1  0
 18 19  2  0
 19 20  1  0
 20 21  2  0
 21 22  1  0
 22 23  2  0
 21 24  1  0
 24 25  1  0
 24 26  1  0
 27 28  1  0
 28 29  2  0
 28 30  2  0
 28 31  1  0
 31 32  2  0
 32 33  1  0
 33 34  2  0
 34 35  1  0
 35 36  2  0
  7  2  1  0
 23 10  1  0
 16 11  1  0
 23 18  1  0
 36 31  1  0
M  CHG  2  24   1  26  -1
M  END
$$$$
418489
     RDKit          2D

 25 27  0  0  0  0  0  0  0  0999 V2000
    3.0000    0.0000    0.0000 C   0  0  0  0  0  0  0  0  0  0  0  0
    1.5000    0.0000    0.0000 N   0  0  0  0  0  0  0  0  0  0  0  0
    0.7500   -1.2990    0.0000 C   0  0  0  0  0  0  0  0  0  0  0  0
   -0.7500   -1.2990    0.0000 C   0  0  0  0  0  0  0  0  0  0  0  0
   -1.5000    0.0000    0.0000 C   0  0  0  0  0  0  0  0  0  0  0  0
   -0.7500    1.2990    0.0000 N   0  0  0  0  0  0  0  0  0  0  0  0
    0.7500    1.2990    0.0000 C   0  0  0  0  0  0  0  0  0  0  0  0
    1.5000    2.5981    0.0000 C   0  0  0  0  0  0  0  0  0  0  0  0
    3.0000    2.5981    0.0000 O   0  0  0  0  0  0  0  0  0  0  0  0
    3.7500    3.8971    0.0000 C   0  0  0  0  0  0  0  0  0  0  0  0
    3.0000    5.1962    0.0000 O   0  0  0  0  0  0  0  0  0  0  0  0
    5.2500    3.8971    0.0000 C   0  0  0  0  0  0  0  0  0  0  0  0
    6.7500    3.8971    0.0000 O   0  0  0  0  0  0  0  0  0  0  0  0
    5.2500    2.3971    0.0000 C   0  0  0  0  0  0  0  0  0  0  0  0
    3.9510    1.6471    0.0000 C   0  0  0  0  0  0  0  0  0  0  0  0
    3.9510    0.1471    0.0000 C   0  0  0  0  0  0  0  0  0  0  0  0
    5.2500   -0.6029    0.0000 C   0  0  0  0  0  0  0  0  0  0  0  0
    6.5490    0.1471    0.0000 C   0  0  0  0  0  0  0  0  0  0  0  0
    6.5490    1.6471    0.0000 C   0  0  0  0  0  0  0  0  0  0  0  0
    5.2500    5.3971    0.0000 C   0  0  0  0  0  0  0  0  0  0  0  0
    6.5490    6.1471    0.0000 C   0  0  0  0  0  0  0  0  0  0  0  0
    6.5490    7.6471    0.0000 C   0  0  0  0  0  0  0  0  0  0  0  0
    5.2500    8.3971    0.0000 C   0  0  0  0  0  0  0  0  0  0  0  0
    3.9510    7.6471    0.0000 C   0  0  0  0  0  0  0  0  0  0  0  0
    3.9510    6.1471    0.0000 C   0  0  0  0  0  0  0  0  0  0  0  0
  1  2  1  0
  2  3  1  0
  3  4  1  0
  4  5  1  0
  5  6  1  0
  6  7  2  0
  7  8  1  0
  8  9  1  0
  9 10  1  0
 10 11  2  0
 10 12  1  0
 12 13  1  0
 12 14  1  0
 14 15  1  0
 15 16  1  0
 16 17  1  0
 17 18  1  0
 18 19  1  0
 12 20  1  0
 20 21  2  0
 21 22  1  0
 22 23  2  0
 23 24  1  0
 24 25  2  0
  7  2  1  0
 19 14  1  0
 25 20  1  0
M  END
$$$$
421034
     RDKit          2D

 27 30  0  0  0  0  0  0  0  0999 V2000
   -5.6213   -4.5165    0.0000 C   0  0  0  0  0  0  0  0  0  0  0  0
   -4.3223   -5.2665    0.0000 N   0  0  0  0  0  0  0  0  0  0  0  0
   -4.1655   -6.7583    0.0000 C   0  0  0  0  0  0  0  0  0  0  0  0
   -2.6983   -7.0701    0.0000 C   0  0  0  0  0  0  0  0  0  0  0  0
   -1.9483   -5.7711    0.0000 C   0  0  0  0  0  0  0  0  0  0  0  0
   -2.9520   -4.6564    0.0000 C   0  0  0  0  0  0  0  0  0  0  0  0
   -2.6401   -3.1891    0.0000 C   0  0  0  0  0  0  0  0  0  0  0  0
   -1.2135   -2.7256    0.0000 C   0  0  0  0  0  0  0  0  0  0  0  0
   -0.0000   -3.6073    0.0000 C   0  0  0  0  0  0  0  0  0  0  0  0
    1.2135   -2.7256    0.0000 N   0  0  0  0  0  0  0  0  0  0  0  0
    0.7500   -1.2990    0.0000 C   0  0  0  0  0  0  0  0  0  0  0  0
    1.5000    0.0000    0.0000 C   0  0  0  0  0  0  0  0  0  0  0  0
    0.7500    1.2990    0.0000 C   0  0  0  0  0  0  0  0  0  0  0  0
   -0.7500    1.2990    0.0000 C   0  0  0  0  0  0  0  0  0  0  0  0
   -1.5000    2.5981    0.0000 C   0  0  0  0  0  0  0  0  0  0  0  0
   -0.7500    3.8971    0.0000 C   0  0  0  0  0  0  0  0  0  0  0  0
   -1.5000    5.1962    0.0000 S   0  0  0  0  0  0  0  0  0  0  0  0
   -0.2010    5.9462    0.0000 O   0  0  0  0  0  0  0  0  0  0  0  0
   -2.7990    4.4462    0.0000 O   0  0  0  0  0  0  0  0  0  0  0  0
   -2.2500    6.4952    0.0000 C   0  0  0  0  0  0  0  0  0  0  0  0
   -1.5000    7.7942    0.0000 C   0  0  0  0  0  0  0  0  0  0  0  0
   -2.2500    9.0933    0.0000 C   0  0  0  0  0  0  0  0  0  0  0  0
   -3.7500    9.0933    0.0000 C   0  0  0  0  0  0  0  0  0  0  0  0
   -4.5000    7.7942    0.0000 C   0  0  0  0  0  0  0  0  0  0  0  0
   -3.7500    6.4952    0.0000 C   0  0  0  0  0  0  0  0  0  0  0  0
   -1.5000    0.0000    0.0000 C   0  0  0  0  0  0  0  0  0  0  0  0
   -0.7500   -1.2990    0.0000 C   0  0  0  0  0  0  0  0  0  0  0  0
  1  2  1  0
  2  3  1  0
  3  4  1  0
  4  5  1  0
  5  6  1  0
  6  7  1  1
  7  8  1  0
  8  9  2  0
  9 10  1  0
 10 11  1  0
 11 12  2  0
 12 13  1  0
 13 14  2  0
 14 15  1  0
 15 16  1  0
 16 17  1  0
 17 18  2  0
 17 19  2  0
 17 20  1  0
 20 21  2  0
 21 22  1  0
 22 23  2  0
 23 24  1  0
 24 25  2  0
 14 26  1  0
 26 27  2  0
  6  2  1  0
 27  8  1  0
 27 11  1  0
 25 20  1  0
M  END
$$$$
469763
     RDKit          2D

 24 26  0  0  0  0  0  0  0  0999 V2000
   -3.7382   -7.5162    0.0000 C   0  0  0  0  0  0  0  0  0  0  0  0
   -2.3116   -7.9798    0.0000 N   0  0  0  0  0  0  0  0  0  0  0  0
   -1.8481   -9.4063    0.0000 C   0  0  0  0  0  0  0  0  0  0  0  0
   -0.3481   -9.4063    0.0000 C   0  0  0  0  0  0  0  0  0  0  0  0
    0.1154   -7.9798    0.0000 C   0  0  0  0  0  0  0  0  0  0  0  0
   -1.0981   -7.0981    0.0000 C   0  0  0  0  0  0  0  0  0  0  0  0
   -1.0981   -5.5981    0.0000 C   0  0  0  0  0  0  0  0  0  0  0  0
    0.2010   -4.8481    0.0000 C   0  0  0  0  0  0  0  0  0  0  0  0
    0.2010   -3.3481    0.0000 O   0  0  0  0  0  0  0  0  0  0  0  0
    1.5000   -2.5981    0.0000 C   0  0  0  0  0  0  0  0  0  0  0  0
    2.2500   -3.8971    0.0000 C   0  0  0  0  0  0  0  0  0  0  0  0
    0.7500   -1.2990    0.0000 C   0  0  0  0  0  0  0  0  0  0  0  0
    1.5000    0.0000    0.0000 C   0  0  0  0  0  0  0  0  0  0  0  0
    0.7500    1.2990    0.0000 C   0  0  0  0  0  0  0  0  0  0  0  0
   -0.7500    1.2990    0.0000 C   0  0  0  0  0  0  0  0  0  0  0  0
   -1.5000    0.0000    0.0000 C   0  0  0  0  0  0  0  0  0  0  0  0
   -0.7500   -1.2990    0.0000 C   0  0  0  0  0  0  0  0  0  0  0  0
    2.7990   -1.8481    0.0000 C   0  0  0  0  0  0  0  0  0  0  0  0
    4.0981   -2.5981    0.0000 C   0  0  0  0  0  0  0  0  0  0  0  0
    5.3971   -1.8481    0.0000 C   0  0  0  0  0  0  0  0  0  0  0  0
    5.3971   -0.3481    0.0000 C   0  0  0  0  0  0  0  0  0  0  0  0
    6.6962    0.4019    0.0000 Cl  0  0  0  0  0  0  0  0  0  0  0  0
    4.0981    0.4019    0.0000 C   0  0  0  0  0  0  0  0  0  0  0  0
    2.7990   -0.3481    0.0000 C   0  0  0  0  0  0  0  0  0  0  0  0
  1  2  1  0
  2  3  1  0
  3  4  1  0
  4  5  1  0
  5  6  1  0
  6  7  1  1
  7  8  1  0
  8  9  1  0
  9 10  1  0
 10 11  1  1
 10 12  1  0
 12 13  2  0
 13 14  1  0
 14 15  2  0
 15 16  1  0
 16 17  2  0
 10 18  1  0
 18 19  2  0
 19 20  1  0
 20 21  2  0
 21 22  1  0
 21 23  1  0
 23 24  2  0
  6  2  1  0
 17 12  1  0
 24 18  1  0
M  END
$$$$
674746
     RDKit          2D

 32 33  0  0  0  0  0  0  0  0999 V2000
   -3.7382   -7.5162    0.0000 C   0  0  0  0  0  0  0  0  0  0  0  0
   -2.3116   -7.9798    0.0000 N   0  0  0  0  0  0  0  0  0  0  0  0
   -1.8481   -9.4063    0.0000 C   0  0  0  0  0  0  0  0  0  0  0  0
   -0.3481   -9.4063    0.0000 C   0  0  0  0  0  0  0  0  0  0  0  0
    0.1154   -7.9798    0.0000 C   0  0  0  0  0  0  0  0  0  0  0  0
   -1.0981   -7.0981    0.0000 C   0  0  0  0  0  0  0  0  0  0  0  0
   -1.0981   -5.5981    0.0000 C   0  0  0  0  0  0  0  0  0  0  0  0
    0.2010   -4.8481    0.0000 C   0  0  0  0  0  0  0  0  0  0  0  0
    0.2010   -3.3481    0.0000 O   0  0  0  0  0  0  0  0  0  0  0  0
    1.5000   -2.5981    0.0000 C   0  0  0  0  0  0  0  0  0  0  0  0
    2.2500   -3.8971    0.0000 C   0  0  0  0  0  0  0  0  0  0  0  0
    0.7500   -1.2990    0.0000 C   0  0  0  0  0  0  0  0  0  0  0  0
    1.5000    0.0000    0.0000 C   0  0  0  0  0  0  0  0  0  0  0  0
    0.7500    1.2990    0.0000 C   0  0  0  0  0  0  0  0  0  0  0  0
   -0.7500    1.2990    0.0000 C   0  0  0  0  0  0  0  0  0  0  0  0
   -1.5000    0.0000    0.0000 C   0  0  0  0  0  0  0  0  0  0  0  0
   -0.7500   -1.2990    0.0000 C   0  0  0  0  0  0  0  0  0  0  0  0
    2.7990   -1.8481    0.0000 C   0  0  0  0  0  0  0  0  0  0  0  0
    4.0981   -2.5981    0.0000 C   0  0  0  0  0  0  0  0  0  0  0  0
    5.3971   -1.8481    0.0000 C   0  0  0  0  0  0  0  0  0  0  0  0
    5.3971   -0.3481    0.0000 C   0  0  0  0  0  0  0  0  0  0  0  0
    6.6962    0.4019    0.0000 Cl  0  0  0  0  0  0  0  0  0  0  0  0
    4.0981    0.4019    0.0000 C   0  0  0  0  0  0  0  0  0  0  0  0
    2.7990   -0.3481    0.0000 C   0  0  0  0  0  0  0  0  0  0  0  0
    7.6962   -1.2990    0.0000 O   0  0  0  0  0  0  0  0  0  0  0  0
    9.1962   -1.2990    0.0000 C   0  0  0  0  0  0  0  0  0  0  0  0
    9.9462   -2.5981    0.0000 O   0  0  0  0  0  0  0  0  0  0  0  0
    9.9462    0.0000    0.0000 C   0  0  0  0  0  0  0  0  0  0  0  0
   11.4462    0.0000    0.0000 C   0  0  0  0  0  0  0  0  0  0  0  0
   12.1962    1.2990    0.0000 C   0  0  0  0  0  0  0  0  0  0  0  0
   11.4462    2.5981    0.0000 O   0  0  0  0  0  0  0  0  0  0  0  0
   13.6962    1.2990    0.0000 O   0  0  0  0  0  0  0  0  0  0  0  0
  1  2  1  0
  2  3  1  0
  3  4  1  0
  4  5  1  0
  5  6  1  0
  6  7  1  1
  7  8  1  0
  8  9  1  0
  9 10  1  0
 10 11  1  1
 10 12  1  0
 12 13  2  0
 13 14  1  0
 14 15  2  0
 15 16  1  0
 16 17  2  0
 10 18  1  0
 18 19  2  0
 19 20  1  0
 20 21  2  0
 21 22  1  0
 21 23  1  0
 23 24  2  0
 25 26  1  0
 26 27  2  0
 26 28  1  0
 28 29  2  0
 29 30  1  0
 30 31  2  0
 30 32  1  0
  6  2  1  0
 17 12  1  0
 24 18  1  0
M  END
$$$$
115
     RDKit          2D

 12 13  0  0  0  0  0  0  0  0999 V2000
   -0.5773   -4.2803    0.0000 C   0  0  0  0  0  0  0  0  0  0  0  0
    0.8899   -3.9684    0.0000 N   0  0  0  0  0  0  0  0  0  0  0  0
    2.0046   -4.9721    0.0000 C   0  0  0  0  0  0  0  0  0  0  0  0
    3.3037   -4.2221    0.0000 C   0  0  0  0  0  0  0  0  0  0  0  0
    2.9918   -2.7549    0.0000 C   0  0  0  0  0  0  0  0  0  0  0  0
    1.5000   -2.5981    0.0000 C   0  0  0  0  0  0  0  0  0  0  0  0
    0.7500   -1.2990    0.0000 C   0  0  0  0  0  0  0  0  0  0  0  0
    1.5000    0.0000    0.0000 C   0  0  0  0  0  0  0  0  0  0  0  0
    0.7500    1.2990    0.0000 C   0  0  0  0  0  0  0  0  0  0  0  0
   -0.7500    1.2990    0.0000 C   0  0  0  0  0  0  0  0  0  0  0  0
   -1.5000    0.0000    0.0000 N   0  0  0  0  0  0  0  0  0  0  0  0
   -0.7500   -1.2990    0.0000 C   0  0  0  0  0  0  0  0  0  0  0  0
  1  2  1  0
  2  3  1  0
  3  4  1  0
  4  5  1  0
  5  6  1  0
  6  7  1  6
  7  8  2  0
  8  9  1  0
  9 10  2  0
 10 11  1  0
 11 12  2  0
  6  2  1  0
 12  7  1  0
M  END
$$$$
421334
     RDKit          2D

 27 30  0  0  0  0  0  0  0  0999 V2000
   -9.4612   -4.0396    0.0000 C   0  0  0  0  0  0  0  0  0  0  0  0
   -8.0346   -3.5760    0.0000 N   0  0  0  0  0  0  0  0  0  0  0  0
   -6.9199   -4.5797    0.0000 C   0  0  0  0  0  0  0  0  0  0  0  0
   -5.4933   -4.1162    0.0000 C   0  0  0  0  0  0  0  0  0  0  0  0
   -5.1814   -2.6490    0.0000 N   0  0  0  0  0  0  0  0  0  0  0  0
   -6.2961   -1.6453    0.0000 C   0  0  0  0  0  0  0  0  0  0  0  0
   -7.7227   -2.1088    0.0000 C   0  0  0  0  0  0  0  0  0  0  0  0
   -3.7548   -2.1855    0.0000 C   0  0  0  0  0  0  0  0  0  0  0  0
   -3.4430   -0.7182    0.0000 O   0  0  0  0  0  0  0  0  0  0  0  0
   -2.6401   -3.1891    0.0000 O   0  0  0  0  0  0  0  0  0  0  0  0
   -1.2135   -2.7256    0.0000 C   0  0  0  0  0  0  0  0  0  0  0  0
   -0.0000   -3.6073    0.0000 N   0  0  0  0  0  0  0  0  0  0  0  0
    1.2135   -2.7256    0.0000 C   0  0  0  0  0  0  0  0  0  0  0  0
    2.6401   -3.1891    0.0000 O   0  0  0  0  0  0  0  0  0  0  0  0
    0.7500   -1.2990    0.0000 C   0  0  0  0  0  0  0  0  0  0  0  0
    1.5000    0.0000    0.0000 N   0  0  0  0  0  0  0  0  0  0  0  0
    0.7500    1.2990    0.0000 C   0  0  0  0  0  0  0  0  0  0  0  0
   -0.7500    1.2990    0.0000 C   0  0  0  0  0  0  0  0  0  0  0  0
   -1.5000    0.0000    0.0000 N   0  0  0  0  0  0  0  0  0  0  0  0
   -0.7500   -1.2990    0.0000 C   0  0  0  0  0  0  0  0  0  0  0  0
   -0.0000   -5.1073    0.0000 C   0  0  0  0  0  0  0  0  0  0  0  0
    1.2990   -5.8573    0.0000 C   0  0  0  0  0  0  0  0  0  0  0  0
    1.2990   -7.3573    0.0000 C   0  0  0  0  0  0  0  0  0  0  0  0
    0.0000   -8.1073    0.0000 C   0  0  0  0  0  0  0  0  0  0  0  0
    0.0000   -9.6073    0.0000 Cl  0  0  0  0  0  0  0  0  0  0  0  0
   -1.2990   -7.3573    0.0000 C   0  0  0  0  0  0  0  0  0  0  0  0
   -1.2990   -5.8573    0.0000 N   0  0  0  0  0  0  0  0  0  0  0  0
  1  2  1  0
  2  3  1  0
  3  4  1  0
  4  5  1  0
  5  6  1  0
  6  7  1  0
  5  8  1  0
  8  9  2  0
  8 10  1  0
 11 10  1  1
 11 12  1  0
 12 13  1  0
 13 14  2  0
 13 15  1  0
 15 16  2  0
 16 17  1  0
 17 18  2  0
 18 19  1  0
 19 20  2  0
 12 21  1  0
 21 22  2  0
 22 23  1  0
 23 24  2  0
 24 25  1  0
 24 26  1  0
 26 27  2  0
  7  2  1  0
 20 11  1  0
 20 15  1  0
 27 21  1  0
M  END
$$$$
2261
     RDKit          2D

 23 26  0  0  0  0  0  0  0  0999 V2000
   -7.5348   -1.1367    0.0000 C   0  0  0  0  0  0  0  0  0  0  0  0
   -6.0724   -1.4704    0.0000 N   0  0  0  0  0  0  0  0  0  0  0  0
   -5.0522   -0.3709    0.0000 C   0  0  0  0  0  0  0  0  0  0  0  0
   -3.5898   -0.7046    0.0000 C   0  0  0  0  0  0  0  0  0  0  0  0
   -3.1476   -2.1380    0.0000 N   0  0  0  0  0  0  0  0  0  0  0  0
   -4.1679   -3.2376    0.0000 C   0  0  0  0  0  0  0  0  0  0  0  0
   -5.6303   -2.9038    0.0000 C   0  0  0  0  0  0  0  0  0  0  0  0
   -1.6852   -2.4718    0.0000 C   0  0  0  0  0  0  0  0  0  0  0  0
   -1.3515   -3.9342    0.0000 N   0  0  0  0  0  0  0  0  0  0  0  0
   -0.0000   -4.5850    0.0000 C   0  0  0  0  0  0  0  0  0  0  0  0
   -0.1121   -6.0808    0.0000 C   0  0  0  0  0  0  0  0  0  0  0  0
    1.1273   -6.9258    0.0000 C   0  0  0  0  0  0  0  0  0  0  0  0
    1.0152   -8.4216    0.0000 Cl  0  0  0  0  0  0  0  0  0  0  0  0
    2.4787   -6.2750    0.0000 C   0  0  0  0  0  0  0  0  0  0  0  0
    2.5908   -4.7792    0.0000 C   0  0  0  0  0  0  0  0  0  0  0  0
    1.3515   -3.9342    0.0000 C   0  0  0  0  0  0  0  0  0  0  0  0
    1.6852   -2.4718    0.0000 N   0  0  0  0  0  0  0  0  0  0  0  0
    0.7500   -1.2990    0.0000 C   0  0  0  0  0  0  0  0  0  0  0  0
    1.5000    0.0000    0.0000 C   0  0  0  0  0  0  0  0  0  0  0  0
    0.7500    1.2990    0.0000 C   0  0  0  0  0  0  0  0  0  0  0  0
   -0.7500    1.2990    0.0000 C   0  0  0  0  0  0  0  0  0  0  0  0
   -1.5000    0.0000    0.0000 C   0  0  0  0  0  0  0  0  0  0  0  0
   -0.7500   -1.2990    0.0000 C   0  0  0  0  0  0  0  0  0  0  0  0
  1  2  1  0
  2  3  1  0
  3  4  1  0
  4  5  1  0
  5  6  1  0
  6  7  1  0
  5  8  1  0
  8  9  2  0
  9 10  1  0
 10 11  2  0
 11 12  1  0
 12 13  1  0
 12 14  2  0
 14 15  1  0
 15 16  2  0
 16 17  1  0
 17 18  1  0
 18 19  2  0
 19 20  1  0
 20 21  2  0
 21 22  1  0
 22 23  2  0
  7  2  1  0
 23  8  1  0
 16 10  1  0
 23 18  1  0
M  END
$$$$
34197
     RDKit          2D

 22 25  0  0  0  0  0  0  0  0999 V2000
    6.0424   -7.6751    0.0000 C   0  0  0  0  0  0  0  0  0  0  0  0
    4.8697   -6.7399    0.0000 N   0  0  0  0  0  0  0  0  0  0  0  0
    3.4734   -7.2879    0.0000 C   0  0  0  0  0  0  0  0  0  0  0  0
    2.3006   -6.3527    0.0000 C   0  0  0  0  0  0  0  0  0  0  0  0
    2.5242   -4.8694    0.0000 N   0  0  0  0  0  0  0  0  0  0  0  0
    3.9205   -4.3214    0.0000 C   0  0  0  0  0  0  0  0  0  0  0  0
    5.0933   -5.2566    0.0000 C   0  0  0  0  0  0  0  0  0  0  0  0
    1.3515   -3.9342    0.0000 C   0  0  0  0  0  0  0  0  0  0  0  0
    1.6852   -2.4718    0.0000 N   0  0  0  0  0  0  0  0  0  0  0  0
    0.7500   -1.2990    0.0000 C   0  0  0  0  0  0  0  0  0  0  0  0
    1.5000    0.0000    0.0000 C   0  0  0  0  0  0  0  0  0  0  0  0
    0.7500    1.2990    0.0000 C   0  0  0  0  0  0  0  0  0  0  0  0
   -0.7500    1.2990    0.0000 C   0  0  0  0  0  0  0  0  0  0  0  0
   -1.5000    0.0000    0.0000 C   0  0  0  0  0  0  0  0  0  0  0  0
   -0.7500   -1.2990    0.0000 C   0  0  0  0  0  0  0  0  0  0  0  0
   -1.6852   -2.4718    0.0000 N   0  0  0  0  0  0  0  0  0  0  0  0
   -1.3515   -3.9342    0.0000 C   0  0  0  0  0  0  0  0  0  0  0  0
   -2.3880   -5.0184    0.0000 S   0  0  0  0  0  0  0  0  0  0  0  0
   -1.6772   -6.3393    0.0000 C   0  0  0  0  0  0  0  0  0  0  0  0
   -2.3281   -7.6907    0.0000 C   0  0  0  0  0  0  0  0  0  0  0  0
   -0.2013   -6.0714    0.0000 C   0  0  0  0  0  0  0  0  0  0  0  0
    0.0000   -4.5850    0.0000 C   0  0  0  0  0  0  0  0  0  0  0  0
  1  2  1  0
  2  3  1  0
  3  4  1  0
  4  5  1  0
  5  6  1  0
  6  7  1  0
  5  8  1  0
  8  9  2  0
  9 10  1  0
 10 11  2  0
 11 12  1  0
 12 13  2  0
 13 14  1  0
 14 15  2  0
 15 16  1  0
 16 17  1  0
 17 18  1  0
 18 19  1  0
 19 20  1  0
 19 21  2  0
 21 22  1  0
  7  2  1  0
 22  8  1  0
 15 10  1  0
 22 17  2  0
M  END
$$$$
59519
     RDKit          2D

 23 26  0  0  0  0  0  0  0  0999 V2000
    6.0424   -7.6751    0.0000 C   0  0  0  0  0  0  0  0  0  0  0  0
    4.8697   -6.7399    0.0000 N   0  0  0  0  0  0  0  0  0  0  0  0
    3.4734   -7.2879    0.0000 C   0  0  0  0  0  0  0  0  0  0  0  0
    2.3006   -6.3527    0.0000 C   0  0  0  0  0  0  0  0  0  0  0  0
    2.5242   -4.8694    0.0000 N   0  0  0  0  0  0  0  0  0  0  0  0
    3.9205   -4.3214    0.0000 C   0  0  0  0  0  0  0  0  0  0  0  0
    5.0933   -5.2566    0.0000 C   0  0  0  0  0  0  0  0  0  0  0  0
    1.3515   -3.9342    0.0000 C   0  0  0  0  0  0  0  0  0  0  0  0
    1.6852   -2.4718    0.0000 N   0  0  0  0  0  0  0  0  0  0  0  0
    0.7500   -1.2990    0.0000 C   0  0  0  0  0  0  0  0  0  0  0  0
    1.5000    0.0000    0.0000 C   0  0  0  0  0  0  0  0  0  0  0  0
    0.7500    1.2990    0.0000 C   0  0  0  0  0  0  0  0  0  0  0  0
   -0.7500    1.2990    0.0000 C   0  0  0  0  0  0  0  0  0  0  0  0
   -1.5000    0.0000    0.0000 C   0  0  0  0  0  0  0  0  0  0  0  0
   -0.7500   -1.2990    0.0000 C   0  0  0  0  0  0  0  0  0  0  0  0
   -1.6852   -2.4718    0.0000 O   0  0  0  0  0  0  0  0  0  0  0  0
   -1.3515   -3.9342    0.0000 C   0  0  0  0  0  0  0  0  0  0  0  0
   -2.5908   -4.7792    0.0000 C   0  0  0  0  0  0  0  0  0  0  0  0
   -2.4787   -6.2750    0.0000 C   0  0  0  0  0  0  0  0  0  0  0  0
   -1.1273   -6.9258    0.0000 C   0  0  0  0  0  0  0  0  0  0  0  0
   -1.0152   -8.4216    0.0000 Cl  0  0  0  0  0  0  0  0  0  0  0  0
    0.1121   -6.0808    0.0000 C   0  0  0  0  0  0  0  0  0  0  0  0
    0.0000   -4.5850    0.0000 C   0  0  0  0  0  0  0  0  0  0  0  0
  1  2  1  0
  2  3  1  0
  3  4  1  0
  4  5  1  0
  5  6  1  0
  6  7  1  0
  5  8  1  0
  8  9  2  0
  9 10  1  0
 10 11  2  0
 11 12  1  0
 12 13  2  0
 13 14  1  0
 14 15  2  0
 15 16  1  0
 16 17  1  0
 17 18  2  0
 18 19  1  0
 19 20  2  0
 20 21  1  0
 20 22  1  0
 22 23  2  0
  7  2  1  0
 23  8  1  0
 15 10  1  0
 23 17  1  0
M  END
$$$$
675106
     RDKit          2D

 31 33  0  0  0  0  0  0  0  0999 V2000
    6.0424   -7.6751    0.0000 C   0  0  0  0  0  0  0  0  0  0  0  0
    4.8697   -6.7399    0.0000 N   0  0  0  0  0  0  0  0  0  0  0  0
    3.4734   -7.2879    0.0000 C   0  0  0  0  0  0  0  0  0  0  0  0
    2.3006   -6.3527    0.0000 C   0  0  0  0  0  0  0  0  0  0  0  0
    2.5242   -4.8694    0.0000 N   0  0  0  0  0  0  0  0  0  0  0  0
    3.9205   -4.3214    0.0000 C   0  0  0  0  0  0  0  0  0  0  0  0
    5.0933   -5.2566    0.0000 C   0  0  0  0  0  0  0  0  0  0  0  0
    1.3515   -3.9342    0.0000 C   0  0  0  0  0  0  0  0  0  0  0  0
    1.6852   -2.4718    0.0000 N   0  0  0  0  0  0  0  0  0  0  0  0
    0.7500   -1.2990    0.0000 C   0  0  0  0  0  0  0  0  0  0  0  0
    1.5000    0.0000    0.0000 C   0  0  0  0  0  0  0  0  0  0  0  0
    0.7500    1.2990    0.0000 C   0  0  0  0  0  0  0  0  0  0  0  0
   -0.7500    1.2990    0.0000 C   0  0  0  0  0  0  0  0  0  0  0  0
   -1.5000    0.0000    0.0000 C   0  0  0  0  0  0  0  0  0  0  0  0
   -0.7500   -1.2990    0.0000 C   0  0  0  0  0  0  0  0  0  0  0  0
   -1.6852   -2.4718    0.0000 O   0  0  0  0  0  0  0  0  0  0  0  0
   -1.3515   -3.9342    0.0000 C   0  0  0  0  0  0  0  0  0  0  0  0
   -2.5908   -4.7792    0.0000 C   0  0  0  0  0  0  0  0  0  0  0  0
   -2.4787   -6.2750    0.0000 C   0  0  0  0  0  0  0  0  0  0  0  0
   -1.1273   -6.9258    0.0000 C   0  0  0  0  0  0  0  0  0  0  0  0
   -1.0152   -8.4216    0.0000 Cl  0  0  0  0  0  0  0  0  0  0  0  0
    0.1121   -6.0808    0.0000 C   0  0  0  0  0  0  0  0  0  0  0  0
    0.0000   -4.5850    0.0000 C   0  0  0  0  0  0  0  0  0  0  0  0
    7.0424    0.0000    0.0000 O   0  0  0  0  0  0  0  0  0  0  0  0
    8.3415    0.7500    0.0000 C   0  0  0  0  0  0  0  0  0  0  0  0
    8.3415    2.2500    0.0000 O   0  0  0  0  0  0  0  0  0  0  0  0
    9.6405    0.0000    0.0000 C   0  0  0  0  0  0  0  0  0  0  0  0
   10.9396    0.7500    0.0000 C   0  0  0  0  0  0  0  0  0  0  0  0
   12.2386   -0.0000    0.0000 C   0  0  0  0  0  0  0  0  0  0  0  0
   12.2386   -1.5000    0.0000 O   0  0  0  0  0  0  0  0  0  0  0  0
   13.5376    0.7500    0.0000 O   0  0  0  0  0  0  0  0  0  0  0  0
  1  2  1  0
  2  3  1  0
  3  4  1  0
  4  5  1  0
  5  6  1  0
  6  7  1  0
  5  8  1  0
  8  9  2  0
  9 10  1  0
 10 11  2  0
 11 12  1  0
 12 13  2  0
 13 14  1  0
 14 15  2  0
 15 16  1  0
 16 17  1  0
 17 18  2  0
 18 19  1  0
 19 20  2  0
 20 21  1  0
 20 22  1  0
 22 23  2  0
 24 25  1  0
 25 26  2  0
 25 27  1  0
 27 28  1  0
 28 29  1  0
 29 30  2  0
 29 31  1  0
  7  2  1  0
 23  8  1  0
 15 10  1  0
 23 17  1  0
M  END
$$$$
88797
     RDKit          2D

 37 41  0  0  0  0  0  0  0  0999 V2000
    3.0000    0.0000    0.0000 C   0  0  0  0  0  0  0  0  0  0  0  0
    1.5000    0.0000    0.0000 N   0  0  0  0  0  0  0  0  0  0  0  0
    0.7500   -1.2990    0.0000 C   0  0  0  0  0  0  0  0  0  0  0  0
   -0.7500   -1.2990    0.0000 C   0  0  0  0  0  0  0  0  0  0  0  0
   -1.5000    0.0000    0.0000 N   0  0  0  0  0  0  0  0  0  0  0  0
   -3.0000    0.0000    0.0000 C   0  0  0  0  0  0  0  0  0  0  0  0
   -3.7500    1.2990    0.0000 C   0  0  0  0  0  0  0  0  0  0  0  0
   -3.0000    2.5981    0.0000 C   0  0  0  0  0  0  0  0  0  0  0  0
   -3.7500    3.8971    0.0000 C   0  0  0  0  0  0  0  0  0  0  0  0
   -5.2500    3.8971    0.0000 C   0  0  0  0  0  0  0  0  0  0  0  0
   -6.0000    2.5981    0.0000 C   0  0  0  0  0  0  0  0  0  0  0  0
   -5.2500    1.2990    0.0000 C   0  0  0  0  0  0  0  0  0  0  0  0
   -6.0000    5.1962    0.0000 C   0  0  0  0  0  0  0  0  0  0  0  0
   -7.5000    5.1962    0.0000 O   0  0  0  0  0  0  0  0  0  0  0  0
   -5.2500    6.4952    0.0000 N   0  0  0  0  0  0  0  0  0  0  0  0
   -6.0000    7.7942    0.0000 C   0  0  0  0  0  0  0  0  0  0  0  0
   -5.2500    9.0933    0.0000 C   0  0  0  0  0  0  0  0  0  0  0  0
   -6.0000   10.3923    0.0000 C   0  0  0  0  0  0  0  0  0  0  0  0
   -7.5000   10.3923    0.0000 C   0  0  0  0  0  0  0  0  0  0  0  0
   -8.2500   11.6913    0.0000 C   0  0  0  0  0  0  0  0  0  0  0  0
   -8.2500    9.0933    0.0000 C   0  0  0  0  0  0  0  0  0  0  0  0
   -9.7500    9.0933    0.0000 N   0  0  0  0  0  0  0  0  0  0  0  0
  -10.5000    7.7942    0.0000 C   0  0  0  0  0  0  0  0  0  0  0  0
  -12.0000    7.7942    0.0000 N   0  0  0  0  0  0  0  0  0  0  0  0
  -12.7500    6.4952    0.0000 C   0  0  0  0  0  0  0  0  0  0  0  0
  -12.0000    5.1962    0.0000 C   0  0  0  0  0  0  0  0  0  0  0  0
  -10.5000    5.1962    0.0000 C   0  0  0  0  0  0  0  0  0  0  0  0
   -9.7500    6.4952    0.0000 N   0  0  0  0  0  0  0  0  0  0  0  0
   -9.7500    3.8971    0.0000 C   0  0  0  0  0  0  0  0  0  0  0  0
  -10.5000    2.5981    0.0000 C   0  0  0  0  0  0  0  0  0  0  0  0
   -9.7500    1.2990    0.0000 C   0  0  0  0  0  0  0  0  0  0  0  0
   -8.2500    1.2990    0.0000 C   0  0  0  0  0  0  0  0  0  0  0  0
   -7.5000    2.5981    0.0000 N   0  0  0  0  0  0  0  0  0  0  0  0
   -8.2500    3.8971    0.0000 C   0  0  0  0  0  0  0  0  0  0  0  0
   -7.5000    7.7942    0.0000 C   0  0  0  0  0  0  0  0  0  0  0  0
   -0.7500    1.2990    0.0000 C   0  0  0  0  0  0  0  0  0  0  0  0
    0.7500    1.2990    0.0000 C   0  0  0  0  0  0  0  0  0  0  0  0
  1  2  1  0
  2  3  1  0
  3  4  1  0
  4  5  1  0
  5  6  1  0
  6  7  1  0
  7  8  2  0
  8  9  1  0
  9 10  2  0
 10 11  1  0
 11 12  2  0
 10 13  1  0
 13 14  2  0
 13 15  1  0
 15 16  1  0
 16 17  2  0
 17 18  1  0
 18 19  2  0
 19 20  1  0
 19 21  1  0
 21 22  1  0
 22 23  1  0
 23 24  2  0
 24 25  1  0
 25 26  2  0
 26 27  1  0
 27 28  2  0
 27 29  1  0
 29 30  2  0
 30 31  1  0
 31 32  2  0
 32 33  1  0
 33 34  2  0
 21 35  2  0
  5 36  1  0
 36 37  1  0
 37  2  1  0
 12  7  1  0
 35 16  1  0
 28 23  1  0
 34 29  1  0
M  END
$$$$
485100
     RDKit          2D

 42 45  0  0  0  0  0  0  0  0999 V2000
    3.0000    0.0000    0.0000 C   0  0  0  0  0  0  0  0  0  0  0  0
    1.5000    0.0000    0.0000 N   0  0  0  0  0  0  0  0  0  0  0  0
    0.7500   -1.2990    0.0000 C   0  0  0  0  0  0  0  0  0  0  0  0
   -0.7500   -1.2990    0.0000 C   0  0  0  0  0  0  0  0  0  0  0  0
   -1.5000    0.0000    0.0000 N   0  0  0  0  0  0  0  0  0  0  0  0
   -3.0000    0.0000    0.0000 C   0  0  0  0  0  0  0  0  0  0  0  0
   -3.7500    1.2990    0.0000 C   0  0  0  0  0  0  0  0  0  0  0  0
   -3.0000    2.5981    0.0000 C   0  0  0  0  0  0  0  0  0  0  0  0
   -3.7500    3.8971    0.0000 C   0  0  0  0  0  0  0  0  0  0  0  0
   -5.2500    3.8971    0.0000 C   0  0  0  0  0  0  0  0  0  0  0  0
   -6.0000    2.5981    0.0000 C   0  0  0  0  0  0  0  0  0  0  0  0
   -5.2500    1.2990    0.0000 C   0  0  0  0  0  0  0  0  0  0  0  0
   -6.0000    5.1962    0.0000 C   0  0  0  0  0  0  0  0  0  0  0  0
   -7.5000    5.1962    0.0000 O   0  0  0  0  0  0  0  0  0  0  0  0
   -5.2500    6.4952    0.0000 N   0  0  0  0  0  0  0  0  0  0  0  0
   -6.0000    7.7942    0.0000 C   0  0  0  0  0  0  0  0  0  0  0  0
   -5.2500    9.0933    0.0000 C   0  0  0  0  0  0  0  0  0  0  0  0
   -6.0000   10.3923    0.0000 C   0  0  0  0  0  0  0  0  0  0  0  0
   -7.5000   10.3923    0.0000 C   0  0  0  0  0  0  0  0  0  0  0  0
   -8.2500   11.6913    0.0000 C   0  0  0  0  0  0  0  0  0  0  0  0
   -8.2500    9.0933    0.0000 C   0  0  0  0  0  0  0  0  0  0  0  0
   -9.7500    9.0933    0.0000 N   0  0  0  0  0  0  0  0  0  0  0  0
  -10.5000    7.7942    0.0000 C   0  0  0  0  0  0  0  0  0  0  0  0
  -12.0000    7.7942    0.0000 N   0  0  0  0  0  0  0  0  0  0  0  0
  -12.7500    6.4952    0.0000 C   0  0  0  0  0  0  0  0  0  0  0  0
  -12.0000    5.1962    0.0000 C   0  0  0  0  0  0  0  0  0  0  0  0
  -10.5000    5.1962    0.0000 C   0  0  0  0  0  0  0  0  0  0  0  0
   -9.7500    6.4952    0.0000 N   0  0  0  0  0  0  0  0  0  0  0  0
   -9.7500    3.8971    0.0000 C   0  0  0  0  0  0  0  0  0  0  0  0
  -10.5000    2.5981    0.0000 C   0  0  0  0  0  0  0  0  0  0  0  0
   -9.7500    1.2990    0.0000 C   0  0  0  0  0  0  0  0  0  0  0  0
   -8.2500    1.2990    0.0000 C   0  0  0  0  0  0  0  0  0  0  0  0
   -7.5000    2.5981    0.0000 N   0  0  0  0  0  0  0  0  0  0  0  0
   -8.2500    3.8971    0.0000 C   0  0  0  0  0  0  0  0  0  0  0  0
   -7.5000    7.7942    0.0000 C   0  0  0  0  0  0  0  0  0  0  0  0
   -0.7500    1.2990    0.0000 C   0  0  0  0  0  0  0  0  0  0  0  0
    0.7500    1.2990    0.0000 C   0  0  0  0  0  0  0  0  0  0  0  0
    0.0000   13.2404    0.0000 C   0  0  0  0  0  0  0  0  0  0  0  0
    1.2990   13.9904    0.0000 S   0  0  0  0  0  0  0  0  0  0  0  0
    2.0490   12.6913    0.0000 O   0  0  0  0  0  0  0  0  0  0  0  0
    0.5490   15.2894    0.0000 O   0  0  0  0  0  0  0  0  0  0  0  0
    2.5981   14.7404    0.0000 O   0  0  0  0  0  0  0  0  0  0  0  0
  1  2  1  0
  2  3  1  0
  3  4  1  0
  4  5  1  0
  5  6  1  0
  6  7  1  0
  7  8  2  0
  8  9  1  0
  9 10  2  0
 10 11  1  0
 11 12  2  0
 10 13  1  0
 13 14  2  0
 13 15  1  0
 15 16  1  0
 16 17  2  0
 17 18  1  0
 18 19  2  0
 19 20  1  0
 19 21  1  0
 21 22  1  0
 22 23  1  0
 23 24  2  0
 24 25  1  0
 25 26  2  0
 26 27  1  0
 27 28  2  0
 27 29  1  0
 29 30  2  0
 30 31  1  0
 31 32  2  0
 32 33  1  0
 33 34  2  0
 21 35  2  0
  5 36  1  0
 36 37  1  0
 38 39  1  0
 39 40  2  0
 39 41  2  0
 39 42  1  0
 37  2  1  0
 12  7  1  0
 35 16  1  0
 28 23  1  0
 34 29  1  0
M  END
$$$$
649637
     RDKit          2D

 39 43  0  0  0  0  0  0  0  0999 V2000
  -19.0026    1.0556    0.0000 C   0  0  0  0  0  0  0  0  0  0  0  0
  -17.5761    1.5191    0.0000 N   0  0  0  0  0  0  0  0  0  0  0  0
  -16.4613    0.5154    0.0000 C   0  0  0  0  0  0  0  0  0  0  0  0
  -15.0348    0.9789    0.0000 C   0  0  0  0  0  0  0  0  0  0  0  0
  -14.7229    2.4461    0.0000 N   0  0  0  0  0  0  0  0  0  0  0  0
  -13.2963    2.9097    0.0000 C   0  0  0  0  0  0  0  0  0  0  0  0
  -12.1816    1.9060    0.0000 C   0  0  0  0  0  0  0  0  0  0  0  0
  -12.4935    0.4388    0.0000 C   0  0  0  0  0  0  0  0  0  0  0  0
  -11.3787   -0.5649    0.0000 C   0  0  0  0  0  0  0  0  0  0  0  0
   -9.9521   -0.1014    0.0000 C   0  0  0  0  0  0  0  0  0  0  0  0
   -8.8374   -1.1051    0.0000 N   0  0  0  0  0  0  0  0  0  0  0  0
   -9.1493   -2.5723    0.0000 C   0  0  0  0  0  0  0  0  0  0  0  0
  -10.5759   -3.0359    0.0000 O   0  0  0  0  0  0  0  0  0  0  0  0
   -8.0346   -3.5760    0.0000 C   0  0  0  0  0  0  0  0  0  0  0  0
   -8.3464   -5.0433    0.0000 C   0  0  0  0  0  0  0  0  0  0  0  0
   -7.2317   -6.0469    0.0000 C   0  0  0  0  0  0  0  0  0  0  0  0
   -5.8051   -5.5834    0.0000 C   0  0  0  0  0  0  0  0  0  0  0  0
   -4.6904   -6.5871    0.0000 C   0  0  0  0  0  0  0  0  0  0  0  0
   -5.4933   -4.1162    0.0000 C   0  0  0  0  0  0  0  0  0  0  0  0
   -6.6080   -3.1125    0.0000 C   0  0  0  0  0  0  0  0  0  0  0  0
   -4.0667   -3.6527    0.0000 C   0  0  0  0  0  0  0  0  0  0  0  0
   -2.6401   -3.1891    0.0000 C   0  0  0  0  0  0  0  0  0  0  0  0
   -1.2135   -2.7256    0.0000 C   0  0  0  0  0  0  0  0  0  0  0  0
   -0.0000   -3.6073    0.0000 C   0  0  0  0  0  0  0  0  0  0  0  0
    1.2135   -2.7256    0.0000 N   0  0  0  0  0  0  0  0  0  0  0  0
    0.7500   -1.2990    0.0000 C   0  0  0  0  0  0  0  0  0  0  0  0
    1.5000    0.0000    0.0000 C   0  0  0  0  0  0  0  0  0  0  0  0
    0.7500    1.2990    0.0000 C   0  0  0  0  0  0  0  0  0  0  0  0
   -0.7500    1.2990    0.0000 C   0  0  0  0  0  0  0  0  0  0  0  0
   -1.5000    0.0000    0.0000 N   0  0  0  0  0  0  0  0  0  0  0  0
   -0.7500   -1.2990    0.0000 N   0  0  0  0  0  0  0  0  0  0  0  0
   -9.6403    1.3658    0.0000 C   0  0  0  0  0  0  0  0  0  0  0  0
  -10.7550    2.3695    0.0000 C   0  0  0  0  0  0  0  0  0  0  0  0
  -10.4431    3.8367    0.0000 C   0  0  0  0  0  0  0  0  0  0  0  0
  -10.1313    5.3039    0.0000 F   0  0  0  0  0  0  0  0  0  0  0  0
   -8.9759    3.5249    0.0000 F   0  0  0  0  0  0  0  0  0  0  0  0
  -11.9104    4.1486    0.0000 F   0  0  0  0  0  0  0  0  0  0  0  0
  -15.8376    3.4498    0.0000 C   0  0  0  0  0  0  0  0  0  0  0  0
  -17.2642    2.9863    0.0000 C   0  0  0  0  0  0  0  0  0  0  0  0
  1  2  1  0
  2  3  1  0
  3  4  1  0
  4  5  1  0
  5  6  1  0
  6  7  1  0
  7  8  2  0
  8  9  1  0
  9 10  2  0
 10 11  1  0
 11 12  1  0
 12 13  2  0
 12 14  1  0
 14 15  2  0
 15 16  1  0
 16 17  2  0
 17 18  1  0
 17 19  1  0
 19 20  2  0
 19 21  1  0
 21 22  3  0
 22 23  1  0
 23 24  2  0
 24 25  1  0
 25 26  2  0
 26 27  1  0
 27 28  2  0
 28 29  1  0
 29 30  2  0
 30 31  1  0
 10 32  1  0
 32 33  2  0
 33 34  1  0
 34 35  1  0
 34 36  1  0
 34 37  1  0
  5 38  1  0
 38 39  1  0
 39  2  1  0
 33  7  1  0
 20 14  1  0
 31 23  1  0
 31 26  1  0
M  END
$$$$
1325
     RDKit          2D

 28 31  0  0  0  0  0  0  0  0999 V2000
    8.2500   -9.0933    0.0000 C   0  0  0  0  0  0  0  0  0  0  0  0
    7.5000   -7.7942    0.0000 N   0  0  0  0  0  0  0  0  0  0  0  0
    6.0000   -7.7942    0.0000 C   0  0  0  0  0  0  0  0  0  0  0  0
    5.2500   -6.4952    0.0000 C   0  0  0  0  0  0  0  0  0  0  0  0
    6.0000   -5.1962    0.0000 N   0  0  0  0  0  0  0  0  0  0  0  0
    5.2500   -3.8971    0.0000 C   0  0  0  0  0  0  0  0  0  0  0  0
    3.7500   -3.8971    0.0000 C   0  0  0  0  0  0  0  0  0  0  0  0
    3.0000   -2.5981    0.0000 C   0  0  0  0  0  0  0  0  0  0  0  0
    1.5000   -2.5981    0.0000 N   0  0  0  0  0  0  0  0  0  0  0  0
    0.7500   -1.2990    0.0000 C   0  0  0  0  0  0  0  0  0  0  0  0
    1.5000    0.0000    0.0000 C   0  0  0  0  0  0  0  0  0  0  0  0
    0.7500    1.2990    0.0000 C   0  0  0  0  0  0  0  0  0  0  0  0
   -0.7500    1.2990    0.0000 C   0  0  0  0  0  0  0  0  0  0  0  0
   -1.5000    0.0000    0.0000 C   0  0  0  0  0  0  0  0  0  0  0  0
   -0.7500   -1.2990    0.0000 C   0  0  0  0  0  0  0  0  0  0  0  0
   -1.5000   -2.5981    0.0000 S   0  0  0  0  0  0  0  0  0  0  0  0
   -0.7500   -3.8971    0.0000 C   0  0  0  0  0  0  0  0  0  0  0  0
   -1.5000   -5.1962    0.0000 C   0  0  0  0  0  0  0  0  0  0  0  0
   -0.7500   -6.4952    0.0000 C   0  0  0  0  0  0  0  0  0  0  0  0
    0.7500   -6.4952    0.0000 C   0  0  0  0  0  0  0  0  0  0  0  0
    1.5000   -5.1962    0.0000 C   0  0  0  0  0  0  0  0  0  0  0  0
    0.7500   -3.8971    0.0000 C   0  0  0  0  0  0  0  0  0  0  0  0
    1.5000   -7.7942    0.0000 C   0  0  0  0  0  0  0  0  0  0  0  0
    2.2500   -9.0933    0.0000 F   0  0  0  0  0  0  0  0  0  0  0  0
    0.2010   -8.5442    0.0000 F   0  0  0  0  0  0  0  0  0  0  0  0
    2.7990   -7.0442    0.0000 F   0  0  0  0  0  0  0  0  0  0  0  0
    7.5000   -5.1962    0.0000 C   0  0  0  0  0  0  0  0  0  0  0  0
    8.2500   -6.4952    0.0000 C   0  0  0  0  0  0  0  0  0  0  0  0
  1  2  1  0
  2  3  1  0
  3  4  1  0
  4  5  1  0
  5  6  1  0
  6  7  1  0
  7  8  1  0
  8  9  1  0
  9 10  1  0
 10 11  2  0
 11 12  1  0
 12 13  2  0
 13 14  1  0
 14 15  2  0
 15 16  1  0
 16 17  1  0
 17 18  2  0
 18 19  1  0
 19 20  2  0
 20 21  1  0
 21 22  2  0
 20 23  1  0
 23 24  1  0
 23 25  1  0
 23 26  1  0
  5 27  1  0
 27 28  1  0
 28  2  1  0
 22  9  1  0
 15 10  1  0
 22 17  1  0
M  END
$$$$
37266
     RDKit          2D

 25 28  0  0  0  0  0  0  0  0999 V2000
    8.2500   -9.0933    0.0000 C   0  0  0  0  0  0  0  0  0  0  0  0
    7.5000   -7.7942    0.0000 N   0  0  0  0  0  0  0  0  0  0  0  0
    6.0000   -7.7942    0.0000 C   0  0  0  0  0  0  0  0  0  0  0  0
    5.2500   -6.4952    0.0000 C   0  0  0  0  0  0  0  0  0  0  0  0
    6.0000   -5.1962    0.0000 N   0  0  0  0  0  0  0  0  0  0  0  0
    5.2500   -3.8971    0.0000 C   0  0  0  0  0  0  0  0  0  0  0  0
    3.7500   -3.8971    0.0000 C   0  0  0  0  0  0  0  0  0  0  0  0
    3.0000   -2.5981    0.0000 C   0  0  0  0  0  0  0  0  0  0  0  0
    1.5000   -2.5981    0.0000 N   0  0  0  0  0  0  0  0  0  0  0  0
    0.7500   -1.2990    0.0000 C   0  0  0  0  0  0  0  0  0  0  0  0
    1.5000    0.0000    0.0000 C   0  0  0  0  0  0  0  0  0  0  0  0
    0.7500    1.2990    0.0000 C   0  0  0  0  0  0  0  0  0  0  0  0
   -0.7500    1.2990    0.0000 C   0  0  0  0  0  0  0  0  0  0  0  0
   -1.5000    0.0000    0.0000 C   0  0  0  0  0  0  0  0  0  0  0  0
   -0.7500   -1.2990    0.0000 C   0  0  0  0  0  0  0  0  0  0  0  0
   -1.5000   -2.5981    0.0000 S   0  0  0  0  0  0  0  0  0  0  0  0
   -0.7500   -3.8971    0.0000 C   0  0  0  0  0  0  0  0  0  0  0  0
   -1.5000   -5.1962    0.0000 C   0  0  0  0  0  0  0  0  0  0  0  0
   -0.7500   -6.4952    0.0000 C   0  0  0  0  0  0  0  0  0  0  0  0
    0.7500   -6.4952    0.0000 C   0  0  0  0  0  0  0  0  0  0  0  0
    1.5000   -7.7942    0.0000 Cl  0  0  0  0  0  0  0  0  0  0  0  0
    1.5000   -5.1962    0.0000 C   0  0  0  0  0  0  0  0  0  0  0  0
    0.7500   -3.8971    0.0000 C   0  0  0  0  0  0  0  0  0  0  0  0
    7.5000   -5.1962    0.0000 C   0  0  0  0  0  0  0  0  0  0  0  0
    8.2500   -6.4952    0.0000 C   0  0  0  0  0  0  0  0  0  0  0  0
  1  2  1  0
  2  3  1  0
  3  4  1  0
  4  5  1  0
  5  6  1  0
  6  7  1  0
  7  8  1  0
  8  9  1  0
  9 10  1  0
 10 11  2  0
 11 12  1  0
 12 13  2  0
 13 14  1  0
 14 15  2  0
 15 16  1  0
 16 17  1  0
 17 18  2  0
 18 19  1  0
 19 20  2  0
 20 21  1  0
 20 22  1  0
 22 23  2  0
  5 24  1  0
 24 25  1  0
 25  2  1  0
 23  9  1  0
 15 10  1  0
 23 17  1  0
M  END
$$$$
674538
     RDKit          2D

 33 35  0  0  0  0  0  0  0  0999 V2000
    8.2500   -9.0933    0.0000 C   0  0  0  0  0  0  0  0  0  0  0  0
    7.5000   -7.7942    0.0000 N   0  0  0  0  0  0  0  0  0  0  0  0
    6.0000   -7.7942    0.0000 C   0  0  0  0  0  0  0  0  0  0  0  0
    5.2500   -6.4952    0.0000 C   0  0  0  0  0  0  0  0  0  0  0  0
    6.0000   -5.1962    0.0000 N   0  0  0  0  0  0  0  0  0  0  0  0
    5.2500   -3.8971    0.0000 C   0  0  0  0  0  0  0  0  0  0  0  0
    3.7500   -3.8971    0.0000 C   0  0  0  0  0  0  0  0  0  0  0  0
    3.0000   -2.5981    0.0000 C   0  0  0  0  0  0  0  0  0  0  0  0
    1.5000   -2.5981    0.0000 N   0  0  0  0  0  0  0  0  0  0  0  0
    0.7500   -1.2990    0.0000 C   0  0  0  0  0  0  0  0  0  0  0  0
    1.5000    0.0000    0.0000 C   0  0  0  0  0  0  0  0  0  0  0  0
    0.7500    1.2990    0.0000 C   0  0  0  0  0  0  0  0  0  0  0  0
   -0.7500    1.2990    0.0000 C   0  0  0  0  0  0  0  0  0  0  0  0
   -1.5000    0.0000    0.0000 C   0  0  0  0  0  0  0  0  0  0  0  0
   -0.7500   -1.2990    0.0000 C   0  0  0  0  0  0  0  0  0  0  0  0
   -1.5000   -2.5981    0.0000 S   0  0  0  0  0  0  0  0  0  0  0  0
   -0.7500   -3.8971    0.0000 C   0  0  0  0  0  0  0  0  0  0  0  0
   -1.5000   -5.1962    0.0000 C   0  0  0  0  0  0  0  0  0  0  0  0
   -0.7500   -6.4952    0.0000 C   0  0  0  0  0  0  0  0  0  0  0  0
    0.7500   -6.4952    0.0000 C   0  0  0  0  0  0  0  0  0  0  0  0
    1.5000   -7.7942    0.0000 Cl  0  0  0  0  0  0  0  0  0  0  0  0
    1.5000   -5.1962    0.0000 C   0  0  0  0  0  0  0  0  0  0  0  0
    0.7500   -3.8971    0.0000 C   0  0  0  0  0  0  0  0  0  0  0  0
    7.5000   -5.1962    0.0000 C   0  0  0  0  0  0  0  0  0  0  0  0
    8.2500   -6.4952    0.0000 C   0  0  0  0  0  0  0  0  0  0  0  0
    9.2500   -1.2990    0.0000 O   0  0  0  0  0  0  0  0  0  0  0  0
   10.7500   -1.2990    0.0000 C   0  0  0  0  0  0  0  0  0  0  0  0
   11.5000   -2.5981    0.0000 O   0  0  0  0  0  0  0  0  0  0  0  0
   11.5000    0.0000    0.0000 C   0  0  0  0  0  0  0  0  0  0  0  0
   13.0000    0.0000    0.0000 C   0  0  0  0  0  0  0  0  0  0  0  0
   13.7500   -1.2990    0.0000 C   0  0  0  0  0  0  0  0  0  0  0  0
   13.0000   -2.5981    0.0000 O   0  0  0  0  0  0  0  0  0  0  0  0
   15.2500   -1.2990    0.0000 O   0  0  0  0  0  0  0  0  0  0  0  0
  1  2  1  0
  2  3  1  0
  3  4  1  0
  4  5  1  0
  5  6  1  0
  6  7  1  0
  7  8  1  0
  8  9  1  0
  9 10  1  0
 10 11  2  0
 11 12  1  0
 12 13  2  0
 13 14  1  0
 14 15  2  0
 15 16  1  0
 16 17  1  0
 17 18  2  0
 18 19  1  0
 19 20  2  0
 20 21  1  0
 20 22  1  0
 22 23  2  0
  5 24  1  0
 24 25  1  0
 26 27  1  0
 27 28  2  0
 27 29  1  0
 29 30  2  0
 30 31  1  0
 31 32  2  0
 31 33  1  0
 25  2  1  0
 23  9  1  0
 15 10  1  0
 23 17  1  0
M  END
$$$$
675105
     RDKit          2D

 35 37  0  0  0  0  0  0  0  0999 V2000
    8.2500   -9.0933    0.0000 C   0  0  0  0  0  0  0  0  0  0  0  0
    7.5000   -7.7942    0.0000 N   0  0  0  0  0  0  0  0  0  0  0  0
    6.0000   -7.7942    0.0000 C   0  0  0  0  0  0  0  0  0  0  0  0
    5.2500   -6.4952    0.0000 C   0  0  0  0  0  0  0  0  0  0  0  0
    6.0000   -5.1962    0.0000 N   0  0  0  0  0  0  0  0  0  0  0  0
    5.2500   -3.8971    0.0000 C   0  0  0  0  0  0  0  0  0  0  0  0
    3.7500   -3.8971    0.0000 C   0  0  0  0  0  0  0  0  0  0  0  0
    3.0000   -2.5981    0.0000 C   0  0  0  0  0  0  0  0  0  0  0  0
    1.5000   -2.5981    0.0000 N   0  0  0  0  0  0  0  0  0  0  0  0
    0.7500   -1.2990    0.0000 C   0  0  0  0  0  0  0  0  0  0  0  0
    1.5000    0.0000    0.0000 C   0  0  0  0  0  0  0  0  0  0  0  0
    0.7500    1.2990    0.0000 C   0  0  0  0  0  0  0  0  0  0  0  0
   -0.7500    1.2990    0.0000 C   0  0  0  0  0  0  0  0  0  0  0  0
   -1.5000    0.0000    0.0000 C   0  0  0  0  0  0  0  0  0  0  0  0
   -0.7500   -1.2990    0.0000 C   0  0  0  0  0  0  0  0  0  0  0  0
   -1.5000   -2.5981    0.0000 S   0  0  0  0  0  0  0  0  0  0  0  0
   -0.7500   -3.8971    0.0000 C   0  0  0  0  0  0  0  0  0  0  0  0
   -1.5000   -5.1962    0.0000 C   0  0  0  0  0  0  0  0  0  0  0  0
   -0.7500   -6.4952    0.0000 C   0  0  0  0  0  0  0  0  0  0  0  0
    0.7500   -6.4952    0.0000 C   0  0  0  0  0  0  0  0  0  0  0  0
    1.5000   -7.7942    0.0000 Cl  0  0  0  0  0  0  0  0  0  0  0  0
    1.5000   -5.1962    0.0000 C   0  0  0  0  0  0  0  0  0  0  0  0
    0.7500   -3.8971    0.0000 C   0  0  0  0  0  0  0  0  0  0  0  0
    7.5000   -5.1962    0.0000 C   0  0  0  0  0  0  0  0  0  0  0  0
    8.2500   -6.4952    0.0000 C   0  0  0  0  0  0  0  0  0  0  0  0
    9.2500    1.5000    0.0000 O   0  0  0  0  0  0  0  0  0  0  0  0
   10.5490    0.7500    0.0000 S   0  0  0  0  0  0  0  0  0  0  0  0
    9.7990   -0.5490    0.0000 O   0  0  0  0  0  0  0  0  0  0  0  0
   11.2990    2.0490    0.0000 O   0  0  0  0  0  0  0  0  0  0  0  0
   11.8481    0.0000    0.0000 C   0  0  0  0  0  0  0  0  0  0  0  0
   13.1471    0.7500    0.0000 C   0  0  0  0  0  0  0  0  0  0  0  0
   14.4462   -0.0000    0.0000 S   0  0  0  0  0  0  0  0  0  0  0  0
   15.1962    1.2990    0.0000 O   0  0  0  0  0  0  0  0  0  0  0  0
   13.6962   -1.2990    0.0000 O   0  0  0  0  0  0  0  0  0  0  0  0
   15.7452   -0.7500    0.0000 O   0  0  0  0  0  0  0  0  0  0  0  0
  1  2  1  0
  2  3  1  0
  3  4  1  0
  4  5  1  0
  5  6  1  0
  6  7  1  0
  7  8  1  0
  8  9  1  0
  9 10  1  0
 10 11  2  0
 11 12  1  0
 12 13  2  0
 13 14  1  0
 14 15  2  0
 15 16  1  0
 16 17  1  0
 17 18  2  0
 18 19  1  0
 19 20  2  0
 20 21  1  0
 20 22  1  0
 22 23  2  0
  5 24  1  0
 24 25  1  0
 26 27  1  0
 27 28  2  0
 27 29  2  0
 27 30  1  0
 30 31  1  0
 31 32  1  0
 32 33  2  0
 32 34  2  0
 32 35  1  0
 25  2  1  0
 23  9  1  0
 15 10  1  0
 23 17  1  0
M  END
$$$$
27610
     RDKit          2D

 20 23  0  0  0  0  0  0  0  0999 V2000
    5.6515   -2.6078    0.0000 C   0  0  0  0  0  0  0  0  0  0  0  0
    4.2182   -3.0499    0.0000 N   0  0  0  0  0  0  0  0  0  0  0  0
    3.8844   -4.5123    0.0000 C   0  0  0  0  0  0  0  0  0  0  0  0
    2.4510   -4.9544    0.0000 C   0  0  0  0  0  0  0  0  0  0  0  0
    1.3515   -3.9342    0.0000 N   0  0  0  0  0  0  0  0  0  0  0  0
    1.6852   -2.4718    0.0000 C   0  0  0  0  0  0  0  0  0  0  0  0
    3.1186   -2.0297    0.0000 C   0  0  0  0  0  0  0  0  0  0  0  0
    0.7500   -1.2990    0.0000 C   0  0  0  0  0  0  0  0  0  0  0  0
    1.5000    0.0000    0.0000 C   0  0  0  0  0  0  0  0  0  0  0  0
    0.7500    1.2990    0.0000 C   0  0  0  0  0  0  0  0  0  0  0  0
   -0.7500    1.2990    0.0000 C   0  0  0  0  0  0  0  0  0  0  0  0
   -1.5000    0.0000    0.0000 C   0  0  0  0  0  0  0  0  0  0  0  0
   -0.7500   -1.2990    0.0000 C   0  0  0  0  0  0  0  0  0  0  0  0
   -1.6852   -2.4718    0.0000 C   0  0  0  0  0  0  0  0  0  0  0  0
   -1.3515   -3.9342    0.0000 C   0  0  0  0  0  0  0  0  0  0  0  0
   -2.5908   -4.7792    0.0000 C   0  0  0  0  0  0  0  0  0  0  0  0
   -2.4787   -6.2750    0.0000 C   0  0  0  0  0  0  0  0  0  0  0  0
   -1.1273   -6.9258    0.0000 C   0  0  0  0  0  0  0  0  0  0  0  0
    0.1121   -6.0808    0.0000 N   0  0  0  0  0  0  0  0  0  0  0  0
    0.0000   -4.5850    0.0000 C   0  0  0  0  0  0  0  0  0  0  0  0
  1  2  1  0
  2  3  1  0
  3  4  1  0
  4  5  1  0
  5  6  1  0
  6  7  1  0
  6  8  1  0
  8  9  2  0
  9 10  1  0
 10 11  2  0
 11 12  1  0
 12 13  2  0
 13 14  1  0
 14 15  1  0
 15 16  2  0
 16 17  1  0
 17 18  2  0
 18 19  1  0
 19 20  2  0
  7  2  1  0
 20  5  1  0
 13  8  1  0
 20 15  1  0
M  END
$$$$
419580
     RDKit          2D

 21 25  0  0  0  0  0  0  0  0999 V2000
    3.0000    0.0000    0.0000 C   0  0  0  0  0  0  0  0  0  0  0  0
    0.8000   -0.0000    0.0000 N   0  0  0  0  0  0  0  0  0  0  0  0
    0.4000   -0.6928    0.0000 C   0  0  0  0  0  0  0  0  0  0  0  0
   -0.4000   -0.6928    0.0000 C   0  0  0  0  0  0  0  0  0  0  0  0
   -1.5000    0.0000    0.0000 C   0  0  0  0  0  0  0  0  0  0  0  0
   -0.7500    1.2990    0.0000 C   0  0  0  0  0  0  0  0  0  0  0  0
   -1.5000    2.5981    0.0000 C   0  0  0  0  0  0  0  0  0  0  0  0
   -3.0000    2.5981    0.0000 C   0  0  0  0  0  0  0  0  0  0  0  0
   -3.7500    1.2990    0.0000 C   0  0  0  0  0  0  0  0  0  0  0  0
   -5.2500    1.2990    0.0000 O   0  0  0  0  0  0  0  0  0  0  0  0
   -3.0000    0.0000    0.0000 C   0  0  0  0  0  0  0  0  0  0  0  0
   -3.4635   -1.4266    0.0000 O   0  0  0  0  0  0  0  0  0  0  0  0
   -2.2500   -2.3083    0.0000 C   0  0  0  0  0  0  0  0  0  0  0  0
   -2.0932   -3.8000    0.0000 C   0  0  0  0  0  0  0  0  0  0  0  0
   -3.3067   -4.6817    0.0000 O   0  0  0  0  0  0  0  0  0  0  0  0
   -0.7229   -4.4102    0.0000 C   0  0  0  0  0  0  0  0  0  0  0  0
    0.4906   -3.5285    0.0000 C   0  0  0  0  0  0  0  0  0  0  0  0
    0.3338   -2.0367    0.0000 C   0  0  0  0  0  0  0  0  0  0  0  0
   -0.1550    0.1028    0.0000 C   0  0  0  0  0  0  0  0  0  0  0  0
    0.7500    1.2990    0.0000 C   0  0  0  0  0  0  0  0  0  0  0  0
   -1.0365   -1.4266    0.0000 C   0  0  0  0  0  0  0  0  0  0  0  0
  1  2  1  0
  2  3  1  0
  3  4  1  0
  5  4  1  6
  5  6  1  0
  6  7  1  1
  7  8  1  0
  8  9  1  0
  9 10  2  0
  9 11  1  0
 11 12  1  1
 12 13  1  0
 13 14  2  0
 14 15  1  0
 14 16  1  0
 16 17  2  0
 17 18  1  0
 18 19  1  0
 20 19  1  1
 18 21  2  0
 20  2  1  0
 11  5  1  0
 21  5  1  0
 20  6  1  0
 21 13  1  0
M  END
$$$$
19572
     RDKit          2D

 19 22  0  0  0  0  0  0  0  0999 V2000
   -1.5000   -5.1962    0.0000 C   0  0  0  0  0  0  0  0  0  0  0  0
   -0.7500   -3.8971    0.0000 N   0  0  0  0  0  0  0  0  0  0  0  0
    0.7500   -3.8971    0.0000 C   0  0  0  0  0  0  0  0  0  0  0  0
    1.5000   -2.5981    0.0000 C   0  0  0  0  0  0  0  0  0  0  0  0
    0.7500   -1.2990    0.0000 C   0  0  0  0  0  0  0  0  0  0  0  0
    0.8000   -0.0000    0.0000 C   0  0  0  0  0  0  0  0  0  0  0  0
    0.4000    0.6928    0.0000 C   0  0  0  0  0  0  0  0  0  0  0  0
   -0.4000    0.6928    0.0000 C   0  0  0  0  0  0  0  0  0  0  0  0
   -0.8000    0.0000    0.0000 C   0  0  0  0  0  0  0  0  0  0  0  0
   -0.7500   -1.2990    0.0000 C   0  0  0  0  0  0  0  0  0  0  0  0
   -1.5000   -2.5981    0.0000 C   0  0  0  0  0  0  0  0  0  0  0  0
   -2.2500   -1.2990    0.0000 C   0  0  0  0  0  0  0  0  0  0  0  0
   -1.5000   -0.0000    0.0000 C   0  0  0  0  0  0  0  0  0  0  0  0
   -1.5500    1.2990    0.0000 C   0  0  0  0  0  0  0  0  0  0  0  0
   -1.1500    1.9919    0.0000 C   0  0  0  0  0  0  0  0  0  0  0  0
   -0.3500    1.9919    0.0000 C   0  0  0  0  0  0  0  0  0  0  0  0
    0.7500    3.8971    0.0000 O   0  0  0  0  0  0  0  0  0  0  0  0
    0.0500    1.2990    0.0000 C   0  0  0  0  0  0  0  0  0  0  0  0
   -0.0000   -0.0000    0.0000 C   0  0  0  0  0  0  0  0  0  0  0  0
  1  2  1  0
  2  3  1  0
  3  4  1  0
  5  4  1  6
  5  6  1  0
  6  7  1  0
  7  8  1  0
  8  9  1  0
 10  9  1  6
 10 11  1  0
 11 12  1  6
 12 13  1  0
 13 14  2  0
 14 15  1  0
 15 16  2  0
 16 17  1  0
 16 18  1  0
 18 19  2  0
 11  2  1  0
 10  5  1  0
 19  5  1  0
 19 13  1  0
M  END
$$$$
1355852
     RDKit          2D

 29 31  0  0  0  0  0  0  0  0999 V2000
   -1.5000   -5.1962    0.0000 C   0  0  0  0  0  0  0  0  0  0  0  0
   -0.7500   -3.8971    0.0000 N   0  0  0  0  0  0  0  0  0  0  0  0
    0.7500   -3.8971    0.0000 C   0  0  0  0  0  0  0  0  0  0  0  0
    1.5000   -2.5981    0.0000 C   0  0  0  0  0  0  0  0  0  0  0  0
    0.7500   -1.2990    0.0000 C   0  0  0  0  0  0  0  0  0  0  0  0
    0.8000   -0.0000    0.0000 C   0  0  0  0  0  0  0  0  0  0  0  0
    0.4000    0.6928    0.0000 C   0  0  0  0  0  0  0  0  0  0  0  0
   -0.4000    0.6928    0.0000 C   0  0  0  0  0  0  0  0  0  0  0  0
   -0.8000    0.0000    0.0000 C   0  0  0  0  0  0  0  0  0  0  0  0
   -0.7500   -1.2990    0.0000 C   0  0  0  0  0  0  0  0  0  0  0  0
   -1.5000   -2.5981    0.0000 C   0  0  0  0  0  0  0  0  0  0  0  0
   -2.2500   -1.2990    0.0000 C   0  0  0  0  0  0  0  0  0  0  0  0
   -1.5000   -0.0000    0.0000 C   0  0  0  0  0  0  0  0  0  0  0  0
   -1.5500    1.2990    0.0000 C   0  0  0  0  0  0  0  0  0  0  0  0
   -1.1500    1.9919    0.0000 C   0  0  0  0  0  0  0  0  0  0  0  0
   -0.3500    1.9919    0.0000 C   0  0  0  0  0  0  0  0  0  0  0  0
    0.7500    3.8971    0.0000 O   0  0  0  0  0  0  0  0  0  0  0  0
    0.0500    1.2990    0.0000 C   0  0  0  0  0  0  0  0  0  0  0  0
   -0.0000   -0.0000    0.0000 C   0  0  0  0  0  0  0  0  0  0  0  0
    5.0981   -1.5000    0.0000 O   0  0  0  0  0  0  0  0  0  0  0  0
    5.0981    0.0000    0.0000 C   0  0  0  0  0  0  0  0  0  0  0  0
    6.3971    0.7500    0.0000 C   0  0  0  0  0  0  0  0  0  0  0  0
    6.3971    2.2500    0.0000 O   0  0  0  0  0  0  0  0  0  0  0  0
    7.6962   -0.0000    0.0000 C   0  0  0  0  0  0  0  0  0  0  0  0
    7.6962   -1.5000    0.0000 O   0  0  0  0  0  0  0  0  0  0  0  0
    8.9952    0.7500    0.0000 O   0  0  0  0  0  0  0  0  0  0  0  0
    3.7990    0.7500    0.0000 C   0  0  0  0  0  0  0  0  0  0  0  0
    3.7990    2.2500    0.0000 O   0  0  0  0  0  0  0  0  0  0  0  0
    2.5000    0.0000    0.0000 O   0  0  0  0  0  0  0  0  0  0  0  0
  1  2  1  0
  2  3  1  0
  3  4  1  0
  5  4  1  6
  5  6  1  0
  6  7  1  0
  7  8  1  0
  8  9  1  0
 10  9  1  6
 10 11  1  0
 11 12  1  6
 12 13  1  0
 13 14  2  0
 14 15  1  0
 15 16  2  0
 16 17  1  0
 16 18  1  0
 18 19  2  0
 20 21  1  0
 21 22  1  0
 22 23  1  0
 22 24  1  0
 24 25  2  0
 24 26  1  0
 21 27  1  0
 27 28  2  0
 27 29  1  0
 11  2  1  0
 10  5  1  0
 19  5  1  0
 19 13  1  0
M  END
$$$$
6005
     RDKit          2D

 21 25  0  0  0  0  0  0  0  0999 V2000
    3.0000    0.0000    0.0000 C   0  0  0  0  0  0  0  0  0  0  0  0
    0.8000   -0.0000    0.0000 N   0  0  0  0  0  0  0  0  0  0  0  0
    0.4000   -0.6928    0.0000 C   0  0  0  0  0  0  0  0  0  0  0  0
   -0.4000   -0.6928    0.0000 C   0  0  0  0  0  0  0  0  0  0  0  0
   -1.5000    0.0000    0.0000 C   0  0  0  0  0  0  0  0  0  0  0  0
   -3.0000    0.0000    0.0000 C   0  0  0  0  0  0  0  0  0  0  0  0
   -3.4635   -1.4266    0.0000 O   0  0  0  0  0  0  0  0  0  0  0  0
   -2.2500   -2.3083    0.0000 C   0  0  0  0  0  0  0  0  0  0  0  0
   -2.0932   -3.8000    0.0000 C   0  0  0  0  0  0  0  0  0  0  0  0
   -3.3067   -4.6817    0.0000 O   0  0  0  0  0  0  0  0  0  0  0  0
   -0.7229   -4.4102    0.0000 C   0  0  0  0  0  0  0  0  0  0  0  0
    0.4906   -3.5285    0.0000 C   0  0  0  0  0  0  0  0  0  0  0  0
    0.3338   -2.0367    0.0000 C   0  0  0  0  0  0  0  0  0  0  0  0
   -0.1550    0.1028    0.0000 C   0  0  0  0  0  0  0  0  0  0  0  0
    0.7500    1.2990    0.0000 C   0  0  0  0  0  0  0  0  0  0  0  0
   -0.7500    1.2990    0.0000 C   0  0  0  0  0  0  0  0  0  0  0  0
   -1.5000    2.5981    0.0000 C   0  0  0  0  0  0  0  0  0  0  0  0
   -3.0000    2.5981    0.0000 C   0  0  0  0  0  0  0  0  0  0  0  0
   -3.7500    1.2990    0.0000 C   0  0  0  0  0  0  0  0  0  0  0  0
   -5.2500    1.2990    0.0000 O   0  0  0  0  0  0  0  0  0  0  0  0
   -1.0365   -1.4266    0.0000 C   0  0  0  0  0  0  0  0  0  0  0  0
  1  2  1  0
  2  3  1  0
  3  4  1  0
  5  4  1  6
  5  6  1  0
  6  7  1  1
  7  8  1  0
  8  9  2  0
  9 10  1  0
  9 11  1  0
 11 12  2  0
 12 13  1  0
 13 14  1  0
 15 14  1  1
 15 16  1  0
 16 17  1  1
 17 18  2  0
 18 19  1  0
 19 20  1  1
 13 21  2  0
 15  2  1  0
 16  5  1  0
 21  5  1  0
 19  6  1  0
 21  8  1  0
M  END
$$$$
94484
     RDKit          2D

 22 26  0  0  0  0  0  0  0  0999 V2000
    3.0000    0.0000    0.0000 C   0  0  0  0  0  0  0  0  0  0  0  0
    0.8000   -0.0000    0.0000 N   0  0  0  0  0  0  0  0  0  0  0  0
    0.4000   -0.6928    0.0000 C   0  0  0  0  0  0  0  0  0  0  0  0
   -0.4000   -0.6928    0.0000 C   0  0  0  0  0  0  0  0  0  0  0  0
   -1.5000    0.0000    0.0000 C   0  0  0  0  0  0  0  0  0  0  0  0
   -3.0000    0.0000    0.0000 C   0  0  0  0  0  0  0  0  0  0  0  0
   -3.4635   -1.4266    0.0000 O   0  0  0  0  0  0  0  0  0  0  0  0
   -2.2500   -2.3083    0.0000 C   0  0  0  0  0  0  0  0  0  0  0  0
   -2.0932   -3.8000    0.0000 C   0  0  0  0  0  0  0  0  0  0  0  0
   -3.3067   -4.6817    0.0000 O   0  0  0  0  0  0  0  0  0  0  0  0
   -0.7229   -4.4102    0.0000 C   0  0  0  0  0  0  0  0  0  0  0  0
    0.4906   -3.5285    0.0000 C   0  0  0  0  0  0  0  0  0  0  0  0
    0.3338   -2.0367    0.0000 C   0  0  0  0  0  0  0  0  0  0  0  0
   -0.1550    0.1028    0.0000 C   0  0  0  0  0  0  0  0  0  0  0  0
    0.7500    1.2990    0.0000 C   0  0  0  0  0  0  0  0  0  0  0  0
   -0.7500    1.2990    0.0000 C   0  0  0  0  0  0  0  0  0  0  0  0
    0.0000    2.5981    0.0000 O   0  0  0  0  0  0  0  0  0  0  0  0
   -1.5000    2.5981    0.0000 C   0  0  0  0  0  0  0  0  0  0  0  0
   -3.0000    2.5981    0.0000 C   0  0  0  0  0  0  0  0  0  0  0  0
   -3.7500    1.2990    0.0000 C   0  0  0  0  0  0  0  0  0  0  0  0
   -5.2500    1.2990    0.0000 O   0  0  0  0  0  0  0  0  0  0  0  0
   -1.0365   -1.4266    0.0000 C   0  0  0  0  0  0  0  0  0  0  0  0
  1  2  1  0
  2  3  1  0
  3  4  1  0
  5  4  1  6
  5  6  1  0
  6  7  1  1
  7  8  1  0
  8  9  2  0
  9 10  1  0
  9 11  1  0
 11 12  2  0
 12 13  1  0
 13 14  1  0
 15 14  1  1
 15 16  1  0
 16 17  1  6
 16 18  1  0
 18 19  1  0
 19 20  1  0
 20 21  2  0
 13 22  2  0
 15  2  1  0
 16  5  1  0
 22  5  1  0
 20  6  1  0
 22  8  1  0
M  END
$$$$
431141
     RDKit          2D

 19 21  0  0  0  0  0  0  0  0999 V2000
   -3.2325    4.5356    0.0000 C   0  0  0  0  0  0  0  0  0  0  0  0
   -4.5315    3.7856    0.0000 N   0  0  0  0  0  0  0  0  0  0  0  0
   -5.9018    4.3958    0.0000 C   0  0  0  0  0  0  0  0  0  0  0  0
   -6.9055    3.2810    0.0000 N   0  0  0  0  0  0  0  0  0  0  0  0
   -6.1555    1.9820    0.0000 C   0  0  0  0  0  0  0  0  0  0  0  0
   -4.6883    2.2939    0.0000 C   0  0  0  0  0  0  0  0  0  0  0  0
   -3.5736    1.2902    0.0000 S   0  0  0  0  0  0  0  0  0  0  0  0
   -2.1470    1.7537    0.0000 C   0  0  0  0  0  0  0  0  0  0  0  0
   -1.8351    3.2209    0.0000 N   0  0  0  0  0  0  0  0  0  0  0  0
   -0.4086    3.6844    0.0000 C   0  0  0  0  0  0  0  0  0  0  0  0
    0.7062    2.6807    0.0000 N   0  0  0  0  0  0  0  0  0  0  0  0
    0.3943    1.2135    0.0000 C   0  0  0  0  0  0  0  0  0  0  0  0
    1.2760    0.0000    0.0000 N   0  0  0  0  0  0  0  0  0  0  0  0
    0.3943   -1.2135    0.0000 C   0  0  0  0  0  0  0  0  0  0  0  0
   -1.0323   -0.7500    0.0000 N   0  0  0  0  0  0  0  0  0  0  0  0
   -1.0323    0.7500    0.0000 C   0  0  0  0  0  0  0  0  0  0  0  0
   -6.7656    0.6117    0.0000 N   0  0  0  0  0  4  0  0  0  0  0  0
   -5.8840   -0.6018    0.0000 O   0  0  0  0  0  0  0  0  0  0  0  0
   -8.2574    0.4549    0.0000 O   0  0  0  0  0  1  0  0  0  0  0  0
  1  2  1  0
  2  3  1  0
  3  4  2  0
  4  5  1  0
  5  6  2  0
  6  7  1  0
  7  8  1  0
  8  9  2  0
  9 10  1  0
 10 11  2  0
 11 12  1  0
 12 13  1  0
 13 14  2  0
 14 15  1  0
 15 16  1  0
  5 17  1  0
 17 18  2  0
 17 19  1  0
  6  2  1  0
 16  8  1  0
 16 12  2  0
M  CHG  2  17   1  19  -1
M  END
$$$$
2203
     RDKit          2D

 43 50  0  0  0  0  0  0  0  0999 V2000
   -6.0000   -2.5981    0.0000 C   0  0  0  0  0  0  0  0  0  0  0  0
   -5.2500   -1.2990    0.0000 N   0  0  0  0  0  0  0  0  0  0  0  0
   -6.0000    0.0000    0.0000 C   0  0  0  0  0  0  0  0  0  0  0  0
   -5.2500    1.2990    0.0000 C   0  0  0  0  0  0  0  0  0  0  0  0
   -3.7500    1.2990    0.0000 C   0  0  0  0  0  0  0  0  0  0  0  0
   -3.0000    0.0000    0.0000 C   0  0  0  0  0  0  0  0  0  0  0  0
   -3.7500   -1.2990    0.0000 C   0  0  0  0  0  0  0  0  0  0  0  0
   -3.0000   -2.5981    0.0000 C   0  0  0  0  0  0  0  0  0  0  0  0
   -1.5000   -2.5981    0.0000 C   0  0  0  0  0  0  0  0  0  0  0  0
   -0.3853   -3.6018    0.0000 C   0  0  0  0  0  0  0  0  0  0  0  0
    0.9138   -2.8518    0.0000 N   0  0  0  0  0  0  0  0  0  0  0  0
    0.7500   -1.2990    0.0000 C   0  0  0  0  0  0  0  0  0  0  0  0
    1.5000    0.0000    0.0000 C   0  0  0  0  0  0  0  0  0  0  0  0
    0.7500    1.2990    0.0000 C   0  0  0  0  0  0  0  0  0  0  0  0
   -0.7500    1.2990    0.0000 C   0  0  0  0  0  0  0  0  0  0  0  0
   -1.5000    0.0000    0.0000 C   0  0  0  0  0  0  0  0  0  0  0  0
   -0.7500   -1.2990    0.0000 C   0  0  0  0  0  0  0  0  0  0  0  0
   -6.0000    2.5981    0.0000 C   0  0  0  0  0  0  0  0  0  0  0  0
   -7.5000    2.5981    0.0000 O   0  0  0  0  0  0  0  0  0  0  0  0
   -5.2500    3.8971    0.0000 N   0  0  0  0  0  0  0  0  0  0  0  0
   -6.0000    5.1962    0.0000 C   0  0  0  0  0  0  0  0  0  0  0  0
   -7.2135    4.3145    0.0000 C   0  0  0  0  0  0  0  0  0  0  0  0
   -7.0037    6.3109    0.0000 O   0  0  0  0  0  0  0  0  0  0  0  0
   -6.2537    7.6099    0.0000 C   0  0  0  0  0  0  0  0  0  0  0  0
   -7.7455    7.7667    0.0000 O   0  0  0  0  0  0  0  0  0  0  0  0
   -6.7172    9.0365    0.0000 C   0  0  0  0  0  0  0  0  0  0  0  0
   -8.0875    9.6466    0.0000 C   0  0  0  0  0  0  0  0  0  0  0  0
   -7.9307   11.1384    0.0000 C   0  0  0  0  0  0  0  0  0  0  0  0
   -6.4635   11.4502    0.0000 C   0  0  0  0  0  0  0  0  0  0  0  0
   -5.7135   10.1512    0.0000 N   0  0  0  0  0  0  0  0  0  0  0  0
   -4.2463    9.8393    0.0000 C   0  0  0  0  0  0  0  0  0  0  0  0
   -3.2426   10.9541    0.0000 O   0  0  0  0  0  0  0  0  0  0  0  0
   -3.7828    8.4128    0.0000 C   0  0  0  0  0  0  0  0  0  0  0  0
   -2.3156    8.1009    0.0000 C   0  0  0  0  0  0  0  0  0  0  0  0
   -1.3119    9.2156    0.0000 C   0  0  0  0  0  0  0  0  0  0  0  0
   -1.7754   10.6422    0.0000 C   0  0  0  0  0  0  0  0  0  0  0  0
   -0.7717   11.7569    0.0000 C   0  0  0  0  0  0  0  0  0  0  0  0
    0.6955   11.4450    0.0000 C   0  0  0  0  0  0  0  0  0  0  0  0
    1.1591   10.0185    0.0000 C   0  0  0  0  0  0  0  0  0  0  0  0
    0.1554    8.9037    0.0000 C   0  0  0  0  0  0  0  0  0  0  0  0
   -4.7865    7.2980    0.0000 N   0  0  0  0  0  0  0  0  0  0  0  0
   -4.6297    5.8063    0.0000 C   0  0  0  0  0  0  0  0  0  0  0  0
   -3.3306    5.0563    0.0000 O   0  0  0  0  0  0  0  0  0  0  0  0
  1  2  1  0
  2  3  1  0
  3  4  1  0
  4  5  1  0
  5  6  2  0
  6  7  1  0
  7  8  1  1
  8  9  1  0
  9 10  2  0
 10 11  1  0
 11 12  1  0
 12 13  2  0
 13 14  1  0
 14 15  2  0
 15 16  1  0
 16 17  2  0
  4 18  1  6
 18 19  2  0
 18 20  1  0
 20 21  1  0
 21 22  1  1
 21 23  1  0
 23 24  1  0
 24 25  1  6
 24 26  1  0
 26 27  1  6
 27 28  1  0
 28 29  1  0
 29 30  1  0
 30 31  1  0
 31 32  2  0
 31 33  1  0
 33 34  1  6
 34 35  1  0
 35 36  2  0
 36 37  1  0
 37 38  2  0
 38 39  1  0
 39 40  2  0
 33 41  1  0
 41 42  1  0
 42 43  2  0
  7  2  1  0
 16  6  1  0
 17  9  1  0
 17 12  1  0
 42 21  1  0
 41 24  1  0
 30 26  1  0
 40 35  1  0
M  END
$$$$
1355856
     RDKit          2D

 53 59  0  0  0  0  0  0  0  0999 V2000
   -6.0000   -2.5981    0.0000 C   0  0  0  0  0  0  0  0  0  0  0  0
   -5.2500   -1.2990    0.0000 N   0  0  0  0  0  0  0  0  0  0  0  0
   -6.0000    0.0000    0.0000 C   0  0  0  0  0  0  0  0  0  0  0  0
   -5.2500    1.2990    0.0000 C   0  0  0  0  0  0  0  0  0  0  0  0
   -3.7500    1.2990    0.0000 C   0  0  0  0  0  0  0  0  0  0  0  0
   -3.0000    0.0000    0.0000 C   0  0  0  0  0  0  0  0  0  0  0  0
   -3.7500   -1.2990    0.0000 C   0  0  0  0  0  0  0  0  0  0  0  0
   -3.0000   -2.5981    0.0000 C   0  0  0  0  0  0  0  0  0  0  0  0
   -1.5000   -2.5981    0.0000 C   0  0  0  0  0  0  0  0  0  0  0  0
   -0.3853   -3.6018    0.0000 C   0  0  0  0  0  0  0  0  0  0  0  0
    0.9138   -2.8518    0.0000 N   0  0  0  0  0  0  0  0  0  0  0  0
    0.7500   -1.2990    0.0000 C   0  0  0  0  0  0  0  0  0  0  0  0
    1.5000    0.0000    0.0000 C   0  0  0  0  0  0  0  0  0  0  0  0
    0.7500    1.2990    0.0000 C   0  0  0  0  0  0  0  0  0  0  0  0
   -0.7500    1.2990    0.0000 C   0  0  0  0  0  0  0  0  0  0  0  0
   -1.5000    0.0000    0.0000 C   0  0  0  0  0  0  0  0  0  0  0  0
   -0.7500   -1.2990    0.0000 C   0  0  0  0  0  0  0  0  0  0  0  0
   -6.0000    2.5981    0.0000 C   0  0  0  0  0  0  0  0  0  0  0  0
   -7.5000    2.5981    0.0000 O   0  0  0  0  0  0  0  0  0  0  0  0
   -5.2500    3.8971    0.0000 N   0  0  0  0  0  0  0  0  0  0  0  0
   -6.0000    5.1962    0.0000 C   0  0  0  0  0  0  0  0  0  0  0  0
   -7.2135    4.3145    0.0000 C   0  0  0  0  0  0  0  0  0  0  0  0
   -7.0037    6.3109    0.0000 O   0  0  0  0  0  0  0  0  0  0  0  0
   -6.2537    7.6099    0.0000 C   0  0  0  0  0  0  0  0  0  0  0  0
   -7.7455    7.7667    0.0000 O   0  0  0  0  0  0  0  0  0  0  0  0
   -6.7172    9.0365    0.0000 C   0  0  0  0  0  0  0  0  0  0  0  0
   -8.0875    9.6466    0.0000 C   0  0  0  0  0  0  0  0  0  0  0  0
   -7.9307   11.1384    0.0000 C   0  0  0  0  0  0  0  0  0  0  0  0
   -6.4635   11.4502    0.0000 C   0  0  0  0  0  0  0  0  0  0  0  0
   -5.7135   10.1512    0.0000 N   0  0  0  0  0  0  0  0  0  0  0  0
   -4.2463    9.8393    0.0000 C   0  0  0  0  0  0  0  0  0  0  0  0
   -3.2426   10.9541    0.0000 O   0  0  0  0  0  0  0  0  0  0  0  0
   -3.7828    8.4128    0.0000 C   0  0  0  0  0  0  0  0  0  0  0  0
   -2.3156    8.1009    0.0000 C   0  0  0  0  0  0  0  0  0  0  0  0
   -1.3119    9.2156    0.0000 C   0  0  0  0  0  0  0  0  0  0  0  0
   -1.7754   10.6422    0.0000 C   0  0  0  0  0  0  0  0  0  0  0  0
   -0.7717   11.7569    0.0000 C   0  0  0  0  0  0  0  0  0  0  0  0
    0.6955   11.4450    0.0000 C   0  0  0  0  0  0  0  0  0  0  0  0
    1.1591   10.0185    0.0000 C   0  0  0  0  0  0  0  0  0  0  0  0
    0.1554    8.9037    0.0000 C   0  0  0  0  0  0  0  0  0  0  0  0
   -4.7865    7.2980    0.0000 N   0  0  0  0  0  0  0  0  0  0  0  0
   -4.6297    5.8063    0.0000 C   0  0  0  0  0  0  0  0  0  0  0  0
   -3.3306    5.0563    0.0000 O   0  0  0  0  0  0  0  0  0  0  0  0
    5.0981   -1.5000    0.0000 O   0  0  0  0  0  0  0  0  0  0  0  0
    5.0981    0.0000    0.0000 C   0  0  0  0  0  0  0  0  0  0  0  0
    6.3971    0.7500    0.0000 C   0  0  0  0  0  0  0  0  0  0  0  0
    6.3971    2.2500    0.0000 O   0  0  0  0  0  0  0  0  0  0  0  0
    7.6962   -0.0000    0.0000 C   0  0  0  0  0  0  0  0  0  0  0  0
    7.6962   -1.5000    0.0000 O   0  0  0  0  0  0  0  0  0  0  0  0
    8.9952    0.7500    0.0000 O   0  0  0  0  0  0  0  0  0  0  0  0
    3.7990    0.7500    0.0000 C   0  0  0  0  0  0  0  0  0  0  0  0
    3.7990    2.2500    0.0000 O   0  0  0  0  0  0  0  0  0  0  0  0
    2.5000    0.0000    0.0000 O   0  0  0  0  0  0  0  0  0  0  0  0
  1  2  1  0
  2  3  1  0
  3  4  1  0
  4  5  1  0
  5  6  2  0
  6  7  1  0
  7  8  1  1
  8  9  1  0
  9 10  2  0
 10 11  1  0
 11 12  1  0
 12 13  2  0
 13 14  1  0
 14 15  2  0
 15 16  1  0
 16 17  2  0
  4 18  1  6
 18 19  2  0
 18 20  1  0
 20 21  1  0
 21 22  1  1
 21 23  1  0
 23 24  1  0
 24 25  1  6
 24 26  1  0
 26 27  1  6
 27 28  1  0
 28 29  1  0
 29 30  1  0
 30 31  1  0
 31 32  2  0
 31 33  1  0
 33 34  1  6
 34 35  1  0
 35 36  2  0
 36 37  1  0
 37 38  2  0
 38 39  1  0
 39 40  2  0
 33 41  1  0
 41 42  1  0
 42 43  2  0
 44 45  1  0
 45 46  1  0
 46 47  1  0
 46 48  1  0
 48 49  2  0
 48 50  1  0
 45 51  1  0
 51 52  2  0
 51 53  1  0
  7  2  1  0
 16  6  1  0
 17  9  1  0
 17 12  1  0
 42 21  1  0
 41 24  1  0
 30 26  1  0
 40 35  1  0
M  END
$$$$
1124
     RDKit          2D

 14 14  0  0  0  0  0  0  0  0999 V2000
    2.7760    0.0000    0.0000 C   0  0  0  0  0  0  0  0  0  0  0  0
    1.2760    0.0000    0.0000 N   0  0  0  0  0  0  0  0  0  0  0  0
    0.3943    1.2135    0.0000 N   0  0  0  0  0  0  0  0  0  0  0  0
   -1.0323    0.7500    0.0000 C   0  0  0  0  0  0  0  0  0  0  0  0
   -1.0323   -0.7500    0.0000 S   0  0  0  0  0  0  0  0  0  0  0  0
    0.3943   -1.2135    0.0000 C   0  0  0  0  0  0  0  0  0  0  0  0
    0.8578   -2.6401    0.0000 N   0  0  0  0  0  0  0  0  0  0  0  0
    2.3250   -2.9520    0.0000 C   0  0  0  0  0  0  0  0  0  0  0  0
    3.3287   -1.8373    0.0000 O   0  0  0  0  0  0  0  0  0  0  0  0
    2.7886   -4.3786    0.0000 C   0  0  0  0  0  0  0  0  0  0  0  0
   -2.2458    1.6317    0.0000 S   0  0  0  0  0  0  0  0  0  0  0  0
   -1.3641    2.8452    0.0000 O   0  0  0  0  0  0  0  0  0  0  0  0
   -3.1275    0.4182    0.0000 O   0  0  0  0  0  0  0  0  0  0  0  0
   -3.4593    2.5134    0.0000 N   0  0  0  0  0  0  0  0  0  0  0  0
  1  2  1  0
  2  3  1  0
  3  4  2  0
  4  5  1  0
  5  6  1  0
  6  7  2  0
  7  8  1  0
  8  9  2  0
  8 10  1  0
  4 11  1  0
 11 12  2  0
 11 13  2  0
 11 14  1  0
  6  2  1  0
M  END
$$$$
53686
     RDKit          2D

 14 15  0  0  0  0  0  0  0  0999 V2000
   -2.9499    4.2246    0.0000 C   0  0  0  0  0  0  0  0  0  0  0  0
   -1.8351    3.2209    0.0000 N   0  0  0  0  0  0  0  0  0  0  0  0
   -0.4086    3.6844    0.0000 N   0  0  0  0  0  0  0  0  0  0  0  0
    0.7062    2.6807    0.0000 N   0  0  0  0  0  0  0  0  0  0  0  0
    0.3943    1.2135    0.0000 C   0  0  0  0  0  0  0  0  0  0  0  0
    1.2760    0.0000    0.0000 C   0  0  0  0  0  0  0  0  0  0  0  0
    0.3943   -1.2135    0.0000 N   0  0  0  0  0  0  0  0  0  0  0  0
   -1.0323   -0.7500    0.0000 C   0  0  0  0  0  0  0  0  0  0  0  0
   -1.0323    0.7500    0.0000 N   0  0  0  0  0  0  0  0  0  0  0  0
   -2.1470    1.7537    0.0000 C   0  0  0  0  0  0  0  0  0  0  0  0
   -3.5736    1.2902    0.0000 O   0  0  0  0  0  0  0  0  0  0  0  0
    2.7760    0.0000    0.0000 C   0  0  0  0  0  0  0  0  0  0  0  0
    3.5260    1.2990    0.0000 O   0  0  0  0  0  0  0  0  0  0  0  0
    3.5260   -1.2990    0.0000 N   0  0  0  0  0  0  0  0  0  0  0  0
  1  2  1  0
  2  3  1  0
  3  4  2  0
  4  5  1  0
  5  6  2  0
  6  7  1  0
  7  8  2  0
  8  9  1  0
  9 10  1  0
 10 11  2  0
  6 12  1  0
 12 13  2  0
 12 14  1  0
 10  2  1  0
  9  5  1  0
M  END
$$$$
1377939
     RDKit          2D

 31 34  0  0  0  0  0  0  0  0999 V2000
    1.8478   -6.4639    0.0000 C   0  0  0  0  0  0  0  0  0  0  0  0
    2.0046   -4.9721    0.0000 N   0  0  0  0  0  0  0  0  0  0  0  0
    3.3037   -4.2221    0.0000 N   0  0  0  0  0  0  0  0  0  0  0  0
    2.9918   -2.7549    0.0000 N   0  0  0  0  0  0  0  0  0  0  0  0
    1.5000   -2.5981    0.0000 C   0  0  0  0  0  0  0  0  0  0  0  0
    0.8899   -3.9684    0.0000 N   0  0  0  0  0  0  0  0  0  0  0  0
    0.7500   -1.2990    0.0000 C   0  0  0  0  0  0  0  0  0  0  0  0
    1.5000    0.0000    0.0000 C   0  0  0  0  0  0  0  0  0  0  0  0
    0.7500    1.2990    0.0000 C   0  0  0  0  0  0  0  0  0  0  0  0
   -0.7500    1.2990    0.0000 C   0  0  0  0  0  0  0  0  0  0  0  0
   -1.5000    0.0000    0.0000 C   0  0  0  0  0  0  0  0  0  0  0  0
   -0.7500   -1.2990    0.0000 N   0  0  0  0  0  0  0  0  0  0  0  0
   -1.5000    2.5981    0.0000 C   0  0  0  0  0  0  0  0  0  0  0  0
   -0.7500    3.8971    0.0000 C   0  0  0  0  0  0  0  0  0  0  0  0
   -1.5000    5.1962    0.0000 C   0  0  0  0  0  0  0  0  0  0  0  0
   -3.0000    5.1962    0.0000 C   0  0  0  0  0  0  0  0  0  0  0  0
   -3.7500    3.8971    0.0000 C   0  0  0  0  0  0  0  0  0  0  0  0
   -3.0000    2.5981    0.0000 C   0  0  0  0  0  0  0  0  0  0  0  0
   -3.7500    1.2990    0.0000 F   0  0  0  0  0  0  0  0  0  0  0  0
   -3.7500    6.4952    0.0000 N   0  0  0  0  0  0  0  0  0  0  0  0
   -5.2418    6.6520    0.0000 C   0  0  0  0  0  0  0  0  0  0  0  0
   -5.5537    8.1192    0.0000 C   0  0  0  0  0  0  0  0  0  0  0  0
   -6.9240    8.7293    0.0000 C   0  0  0  0  0  0  0  0  0  0  0  0
   -7.0808   10.2211    0.0000 O   0  0  0  0  0  0  0  0  0  0  0  0
   -8.4511   10.8312    0.0000 P   0  0  0  0  0  0  0  0  0  0  0  0
   -7.8410   12.2015    0.0000 O   0  0  0  0  0  0  0  0  0  0  0  0
   -9.0612    9.4609    0.0000 O   0  0  0  0  0  0  0  0  0  0  0  0
   -9.8214   11.4413    0.0000 O   0  0  0  0  0  0  0  0  0  0  0  0
   -4.2546    8.8692    0.0000 O   0  0  0  0  0  0  0  0  0  0  0  0
   -3.1399    7.8655    0.0000 C   0  0  0  0  0  0  0  0  0  0  0  0
   -1.6727    8.1774    0.0000 O   0  0  0  0  0  0  0  0  0  0  0  0
  1  2  1  0
  2  3  1  0
  3  4  2  0
  4  5  1  0
  5  6  2  0
  5  7  1  0
  7  8  2  0
  8  9  1  0
  9 10  2  0
 10 11  1  0
 11 12  2  0
 10 13  1  0
 13 14  2  0
 14 15  1  0
 15 16  2  0
 16 17  1  0
 17 18  2  0
 18 19  1  0
 16 20  1  0
 20 21  1  0
 21 22  1  0
 22 23  1  6
 23 24  1  0
 24 25  1  0
 25 26  2  0
 25 27  1  0
 25 28  1  0
 22 29  1  0
 29 30  1  0
 30 31  2  0
  6  2  1  0
 12  7  1  0
 18 13  1  0
 30 20  1  0
M  END
$$$$
693924
     RDKit          2D

 33 35  0  0  0  0  0  0  0  0999 V2000
    3.0000    0.0000    0.0000 C   0  0  0  0  0  0  0  0  0  0  0  0
    1.5000    0.0000    0.0000 N   0  0  0  0  0  0  0  0  0  0  0  0
    0.7500   -1.2990    0.0000 C   0  0  0  0  0  0  0  0  0  0  0  0
    1.5000   -2.5981    0.0000 C   0  0  0  0  0  0  0  0  0  0  0  0
    0.7500   -3.8971    0.0000 N   0  0  0  0  0  0  0  0  0  0  0  0
    1.5000   -5.1962    0.0000 C   0  0  0  0  0  0  0  0  0  0  0  0
    0.7500   -6.4952    0.0000 C   0  0  0  0  0  0  0  0  0  0  0  0
    1.5000   -7.7942    0.0000 C   0  0  0  0  0  0  0  0  0  0  0  0
    3.0000   -7.7942    0.0000 C   0  0  0  0  0  0  0  0  0  0  0  0
    3.7500   -6.4952    0.0000 C   0  0  0  0  0  0  0  0  0  0  0  0
    3.0000   -5.1962    0.0000 C   0  0  0  0  0  0  0  0  0  0  0  0
    3.7500   -9.0933    0.0000 C   0  0  0  0  0  0  0  0  0  0  0  0
    5.2500   -9.0933    0.0000 O   0  0  0  0  0  0  0  0  0  0  0  0
    3.0000  -10.3923    0.0000 N   0  0  0  0  0  0  0  0  0  0  0  0
    3.7500  -11.6913    0.0000 C   0  0  0  0  0  0  0  0  0  0  0  0
    3.0000  -12.9904    0.0000 C   0  0  0  0  0  0  0  0  0  0  0  0
    3.7500  -14.2894    0.0000 C   0  0  0  0  0  0  0  0  0  0  0  0
    3.0000  -15.5885    0.0000 C   0  0  0  0  0  0  0  0  0  0  0  0
    1.5000  -15.5885    0.0000 O   0  0  0  0  0  0  0  0  0  0  0  0
    3.7500  -16.8875    0.0000 O   0  0  0  0  0  0  0  0  0  0  0  0
    5.2500  -11.6913    0.0000 C   0  0  0  0  0  0  0  0  0  0  0  0
    6.0000  -10.3923    0.0000 O   0  0  0  0  0  0  0  0  0  0  0  0
    6.0000  -12.9904    0.0000 O   0  0  0  0  0  0  0  0  0  0  0  0
   -0.7500   -1.2990    0.0000 C   0  0  0  0  0  0  0  0  0  0  0  0
   -1.5000    0.0000    0.0000 N   0  0  0  0  0  0  0  0  0  0  0  0
   -0.7500    1.2990    0.0000 C   0  0  0  0  0  0  0  0  0  0  0  0
    0.7500    1.2990    0.0000 C   0  0  0  0  0  0  0  0  0  0  0  0
    1.5000    2.5981    0.0000 C   0  0  0  0  0  0  0  0  0  0  0  0
    3.0000    2.5981    0.0000 O   0  0  0  0  0  0  0  0  0  0  0  0
    0.7500    3.8971    0.0000 N   0  0  0  0  0  0  0  0  0  0  0  0
   -0.7500    3.8971    0.0000 C   0  0  0  0  0  0  0  0  0  0  0  0
   -1.5000    5.1962    0.0000 N   0  0  0  0  0  0  0  0  0  0  0  0
   -1.5000    2.5981    0.0000 N   0  0  0  0  0  0  0  0  0  0  0  0
  1  2  1  0
  2  3  1  0
  3  4  1  1
  4  5  1  0
  5  6  1  0
  6  7  2  0
  7  8  1  0
  8  9  2  0
  9 10  1  0
 10 11  2  0
  9 12  1  0
 12 13  2  0
 12 14  1  0
 14 15  1  0
 15 16  1  6
 16 17  1  0
 17 18  1  0
 18 19  2  0
 18 20  1  0
 15 21  1  0
 21 22  2  0
 21 23  1  0
  3 24  1  0
 24 25  1  0
 25 26  1  0
 26 27  2  0
 27 28  1  0
 28 29  2  0
 28 30  1  0
 30 31  2  0
 31 32  1  0
 31 33  1  0
 27  2  1  0
 11  6  1  0
 33 26  1  0
M  END
$$$$
445395
     RDKit          2D

 21 23  0  0  0  0  0  0  0  0999 V2000
    2.0494    0.1929    0.0000 C   0  0  0  0  0  0  0  0  0  0  0  0
    1.2760    0.0000    0.0000 N   0  0  0  0  0  0  0  0  0  0  0  0
    0.3943    1.2135    0.0000 C   0  0  0  0  0  0  0  0  0  0  0  0
   -1.0323    0.7500    0.0000 C   0  0  0  0  0  0  0  0  0  0  0  0
   -1.0323   -0.7500    0.0000 C   0  0  0  0  0  0  0  0  0  0  0  0
    0.3943   -1.2135    0.0000 C   0  0  0  0  0  0  0  0  0  0  0  0
    1.8943   -1.3846    0.0000 C   0  0  0  0  0  0  0  0  0  0  0  0
    2.6443   -0.0855    0.0000 C   0  0  0  0  0  0  0  0  0  0  0  0
    1.8943    1.2135    0.0000 C   0  0  0  0  0  0  0  0  0  0  0  0
    4.1443   -0.0855    0.0000 O   0  0  0  0  0  0  0  0  0  0  0  0
    4.8943   -1.3846    0.0000 C   0  0  0  0  0  0  0  0  0  0  0  0
    4.1443   -2.6836    0.0000 O   0  0  0  0  0  0  0  0  0  0  0  0
    6.3943   -1.3846    0.0000 C   0  0  0  0  0  0  0  0  0  0  0  0
    7.1443   -0.0855    0.0000 C   0  0  0  0  0  0  0  0  0  0  0  0
    8.6443   -0.0855    0.0000 O   0  0  0  0  0  0  0  0  0  0  0  0
    7.1443   -2.6836    0.0000 C   0  0  0  0  0  0  0  0  0  0  0  0
    6.3943   -3.9826    0.0000 C   0  0  0  0  0  0  0  0  0  0  0  0
    7.1443   -5.2817    0.0000 C   0  0  0  0  0  0  0  0  0  0  0  0
    8.6443   -5.2817    0.0000 C   0  0  0  0  0  0  0  0  0  0  0  0
    9.3943   -3.9826    0.0000 C   0  0  0  0  0  0  0  0  0  0  0  0
    8.6443   -2.6836    0.0000 C   0  0  0  0  0  0  0  0  0  0  0  0
  1  2  1  0
  2  3  1  0
  3  4  1  6
  4  5  1  0
  6  5  1  6
  6  7  1  0
  7  8  1  0
  8  9  1  0
  8 10  1  6
 10 11  1  0
 11 12  2  0
 11 13  1  0
 13 14  1  0
 14 15  1  0
 13 16  1  0
 16 17  2  0
 17 18  1  0
 18 19  2  0
 19 20  1  0
 20 21  2  0
  6  2  1  0
  9  3  1  0
 21 16  1  0
M  END
$$$$
1418097
     RDKit          2D

 26 27  0  0  0  0  0  0  0  0999 V2000
    2.0494    0.1929    0.0000 C   0  0  0  0  0  0  0  0  0  0  0  0
    1.2760    0.0000    0.0000 N   0  0  0  0  0  0  0  0  0  0  0  0
    0.3943    1.2135    0.0000 C   0  0  0  0  0  0  0  0  0  0  0  0
   -1.0323    0.7500    0.0000 C   0  0  0  0  0  0  0  0  0  0  0  0
   -1.0323   -0.7500    0.0000 C   0  0  0  0  0  0  0  0  0  0  0  0
    0.3943   -1.2135    0.0000 C   0  0  0  0  0  0  0  0  0  0  0  0
    1.8943   -1.3846    0.0000 C   0  0  0  0  0  0  0  0  0  0  0  0
    2.6443   -0.0855    0.0000 C   0  0  0  0  0  0  0  0  0  0  0  0
    1.8943    1.2135    0.0000 C   0  0  0  0  0  0  0  0  0  0  0  0
    4.1443   -0.0855    0.0000 O   0  0  0  0  0  0  0  0  0  0  0  0
    4.8943   -1.3846    0.0000 C   0  0  0  0  0  0  0  0  0  0  0  0
    4.1443   -2.6836    0.0000 O   0  0  0  0  0  0  0  0  0  0  0  0
    6.3943   -1.3846    0.0000 C   0  0  0  0  0  0  0  0  0  0  0  0
    7.1443   -0.0855    0.0000 C   0  0  0  0  0  0  0  0  0  0  0  0
    8.6443   -0.0855    0.0000 O   0  0  0  0  0  0  0  0  0  0  0  0
    7.1443   -2.6836    0.0000 C   0  0  0  0  0  0  0  0  0  0  0  0
    6.3943   -3.9826    0.0000 C   0  0  0  0  0  0  0  0  0  0  0  0
    7.1443   -5.2817    0.0000 C   0  0  0  0  0  0  0  0  0  0  0  0
    8.6443   -5.2817    0.0000 C   0  0  0  0  0  0  0  0  0  0  0  0
    9.3943   -3.9826    0.0000 C   0  0  0  0  0  0  0  0  0  0  0  0
    8.6443   -2.6836    0.0000 C   0  0  0  0  0  0  0  0  0  0  0  0
    0.0000    2.7626    0.0000 O   0  0  0  0  0  0  0  0  0  0  0  0
    1.2990    3.5126    0.0000 S   0  0  0  0  0  0  0  0  0  0  0  0
    2.0490    2.2135    0.0000 O   0  0  0  0  0  0  0  0  0  0  0  0
    0.5490    4.8116    0.0000 O   0  0  0  0  0  0  0  0  0  0  0  0
    2.5981    4.2626    0.0000 O   0  0  0  0  0  0  0  0  0  0  0  0
  1  2  1  0
  2  3  1  0
  3  4  1  6
  4  5  1  0
  6  5  1  6
  6  7  1  0
  7  8  1  0
  8  9  1  0
  8 10  1  6
 10 11  1  0
 11 12  2  0
 11 13  1  0
 13 14  1  0
 14 15  1  0
 13 16  1  0
 16 17  2  0
 17 18  1  0
 18 19  2  0
 19 20  1  0
 20 21  2  0
 22 23  1  0
 23 24  2  0
 23 25  2  0
 23 26  1  0
  6  2  1  0
  9  3  1  0
 21 16  1  0
M  END
$$$$
675154
     RDKit          2D

 23 26  0  0  0  0  0  0  0  0999 V2000
    2.0494    0.1929    0.0000 C   0  0  0  0  0  0  0  0  0  0  0  0
    1.2760    0.0000    0.0000 N   0  0  0  0  0  0  0  0  0  0  0  0
    0.3943    1.2135    0.0000 C   0  0  0  0  0  0  0  0  0  0  0  0
   -1.0323    0.7500    0.0000 C   0  0  0  0  0  0  0  0  0  0  0  0
   -1.0323   -0.7500    0.0000 C   0  0  0  0  0  0  0  0  0  0  0  0
    0.3943   -1.2135    0.0000 C   0  0  0  0  0  0  0  0  0  0  0  0
    1.8943   -1.3846    0.0000 C   0  0  0  0  0  0  0  0  0  0  0  0
    2.6443   -0.0855    0.0000 C   0  0  0  0  0  0  0  0  0  0  0  0
    1.8943    1.2135    0.0000 C   0  0  0  0  0  0  0  0  0  0  0  0
    4.1443   -0.0855    0.0000 O   0  0  0  0  0  0  0  0  0  0  0  0
    4.8943   -1.3846    0.0000 C   0  0  0  0  0  0  0  0  0  0  0  0
    6.3943   -1.3846    0.0000 C   0  0  0  0  0  0  0  0  0  0  0  0
    7.1443   -2.6836    0.0000 C   0  0  0  0  0  0  0  0  0  0  0  0
    8.6443   -2.6836    0.0000 C   0  0  0  0  0  0  0  0  0  0  0  0
    9.3943   -1.3846    0.0000 C   0  0  0  0  0  0  0  0  0  0  0  0
    8.6443   -0.0855    0.0000 C   0  0  0  0  0  0  0  0  0  0  0  0
    7.1443   -0.0855    0.0000 C   0  0  0  0  0  0  0  0  0  0  0  0
    4.1443   -2.6836    0.0000 C   0  0  0  0  0  0  0  0  0  0  0  0
    2.6443   -2.6836    0.0000 C   0  0  0  0  0  0  0  0  0  0  0  0
    1.8943   -3.9826    0.0000 C   0  0  0  0  0  0  0  0  0  0  0  0
    2.6443   -5.2817    0.0000 C   0  0  0  0  0  0  0  0  0  0  0  0
    4.1443   -5.2817    0.0000 C   0  0  0  0  0  0  0  0  0  0  0  0
    4.8943   -3.9826    0.0000 C   0  0  0  0  0  0  0  0  0  0  0  0
  1  2  1  0
  2  3  1  0
  3  4  1  6
  4  5  1  0
  6  5  1  6
  6  7  1  0
  7  8  1  0
  8  9  1  0
  8 10  1  6
 10 11  1  0
 11 12  1  0
 12 13  2  0
 13 14  1  0
 14 15  2  0
 15 16  1  0
 16 17  2  0
 11 18  1  0
 18 19  2  0
 19 20  1  0
 20 21  2  0
 21 22  1  0
 22 23  2  0
  6  2  1  0
  9  3  1  0
 17 12  1  0
 23 18  1  0
M  END
$$$$
674334
     RDKit          2D

 28 30  0  0  0  0  0  0  0  0999 V2000
    2.0494    0.1929    0.0000 C   0  0  0  0  0  0  0  0  0  0  0  0
    1.2760    0.0000    0.0000 N   0  0  0  0  0  0  0  0  0  0  0  0
    0.3943    1.2135    0.0000 C   0  0  0  0  0  0  0  0  0  0  0  0
   -1.0323    0.7500    0.0000 C   0  0  0  0  0  0  0  0  0  0  0  0
   -1.0323   -0.7500    0.0000 C   0  0  0  0  0  0  0  0  0  0  0  0
    0.3943   -1.2135    0.0000 C   0  0  0  0  0  0  0  0  0  0  0  0
    1.8943   -1.3846    0.0000 C   0  0  0  0  0  0  0  0  0  0  0  0
    2.6443   -0.0855    0.0000 C   0  0  0  0  0  0  0  0  0  0  0  0
    1.8943    1.2135    0.0000 C   0  0  0  0  0  0  0  0  0  0  0  0
    4.1443   -0.0855    0.0000 O   0  0  0  0  0  0  0  0  0  0  0  0
    4.8943   -1.3846    0.0000 C   0  0  0  0  0  0  0  0  0  0  0  0
    6.3943   -1.3846    0.0000 C   0  0  0  0  0  0  0  0  0  0  0  0
    7.1443   -2.6836    0.0000 C   0  0  0  0  0  0  0  0  0  0  0  0
    8.6443   -2.6836    0.0000 C   0  0  0  0  0  0  0  0  0  0  0  0
    9.3943   -1.3846    0.0000 C   0  0  0  0  0  0  0  0  0  0  0  0
    8.6443   -0.0855    0.0000 C   0  0  0  0  0  0  0  0  0  0  0  0
    7.1443   -0.0855    0.0000 C   0  0  0  0  0  0  0  0  0  0  0  0
    4.1443   -2.6836    0.0000 C   0  0  0  0  0  0  0  0  0  0  0  0
    2.6443   -2.6836    0.0000 C   0  0  0  0  0  0  0  0  0  0  0  0
    1.8943   -3.9826    0.0000 C   0  0  0  0  0  0  0  0  0  0  0  0
    2.6443   -5.2817    0.0000 C   0  0  0  0  0  0  0  0  0  0  0  0
    4.1443   -5.2817    0.0000 C   0  0  0  0  0  0  0  0  0  0  0  0
    4.8943   -3.9826    0.0000 C   0  0  0  0  0  0  0  0  0  0  0  0
    0.0000    2.7626    0.0000 C   0  0  0  0  0  0  0  0  0  0  0  0
    1.2990    3.5126    0.0000 S   0  0  0  0  0  0  0  0  0  0  0  0
    2.0490    2.2135    0.0000 O   0  0  0  0  0  0  0  0  0  0  0  0
    0.5490    4.8116    0.0000 O   0  0  0  0  0  0  0  0  0  0  0  0
    2.5981    4.2626    0.0000 O   0  0  0  0  0  0  0  0  0  0  0  0
  1  2  1  0
  2  3  1  0
  3  4  1  6
  4  5  1  0
  6  5  1  6
  6  7  1  0
  7  8  1  0
  8  9  1  0
  8 10  1  6
 10 11  1  0
 11 12  1  0
 12 13  2  0
 13 14  1  0
 14 15  2  0
 15 16  1  0
 16 17  2  0
 11 18  1  0
 18 19  2  0
 19 20  1  0
 20 21  2  0
 21 22  1  0
 22 23  2  0
 24 25  1  0
 25 26  2  0
 25 27  2  0
 25 28  1  0
  6  2  1  0
  9  3  1  0
 17 12  1  0
 23 18  1  0
M  END
$$$$
1153672
     RDKit          2D

 21 21  0  0  0  0  0  0  0  0999 V2000
    8.0260   -6.4952    0.0000 C   0  0  0  0  0  0  0  0  0  0  0  0
    7.2760   -5.1962    0.0000 N   0  0  0  0  0  0  0  0  0  0  0  0
    8.0260   -3.8971    0.0000 C   0  0  0  0  0  0  0  0  0  0  0  0
    9.5260   -3.8971    0.0000 C   0  0  0  0  0  0  0  0  0  0  0  0
   10.2760   -5.1962    0.0000 N   0  0  0  0  0  4  0  0  0  0  0  0
    9.5260   -6.4952    0.0000 O   0  0  0  0  0  0  0  0  0  0  0  0
   11.7760   -5.1962    0.0000 O   0  0  0  0  0  1  0  0  0  0  0  0
    7.2760   -2.5981    0.0000 N   0  0  0  0  0  0  0  0  0  0  0  0
    5.7760   -2.5981    0.0000 C   0  0  0  0  0  0  0  0  0  0  0  0
    5.0260   -1.2990    0.0000 C   0  0  0  0  0  0  0  0  0  0  0  0
    3.5260   -1.2990    0.0000 S   0  0  0  0  0  0  0  0  0  0  0  0
    2.7760    0.0000    0.0000 C   0  0  0  0  0  0  0  0  0  0  0  0
    1.2760    0.0000    0.0000 C   0  0  0  0  0  0  0  0  0  0  0  0
    0.3943    1.2135    0.0000 O   0  0  0  0  0  0  0  0  0  0  0  0
   -1.0323    0.7500    0.0000 C   0  0  0  0  0  0  0  0  0  0  0  0
   -2.2458    1.6317    0.0000 C   0  0  0  0  0  0  0  0  0  0  0  0
   -2.0890    3.1235    0.0000 N   0  0  0  0  0  0  0  0  0  0  0  0
   -3.3025    4.0051    0.0000 C   0  0  0  0  0  0  0  0  0  0  0  0
   -0.7187    3.7336    0.0000 C   0  0  0  0  0  0  0  0  0  0  0  0
   -1.0323   -0.7500    0.0000 C   0  0  0  0  0  0  0  0  0  0  0  0
    0.3943   -1.2135    0.0000 C   0  0  0  0  0  0  0  0  0  0  0  0
  1  2  1  0
  2  3  1  0
  3  4  2  3
  4  5  1  0
  5  6  2  0
  5  7  1  0
  3  8  1  0
  8  9  1  0
  9 10  1  0
 10 11  1  0
 11 12  1  0
 12 13  1  0
 13 14  1  0
 14 15  1  0
 15 16  1  0
 16 17  1  0
 17 18  1  0
 17 19  1  0
 15 20  2  0
 20 21  1  0
 21 13  2  0
M  CHG  2   5   1   7  -1
M  END
$$$$
1277553
     RDKit          2D

 33 35  0  0  0  0  0  0  0  0999 V2000
    5.2500   -1.2990    0.0000 C   0  0  0  0  0  0  0  0  0  0  0  0
    3.7500   -1.2990    0.0000 N   0  0  0  0  0  0  0  0  0  0  0  0
    3.0000    0.0000    0.0000 C   0  0  0  0  0  0  0  0  0  0  0  0
    3.7500    1.2990    0.0000 O   0  0  0  0  0  0  0  0  0  0  0  0
    1.5000    0.0000    0.0000 C   0  0  0  0  0  0  0  0  0  0  0  0
    0.7500   -1.2990    0.0000 C   0  0  0  0  0  0  0  0  0  0  0  0
   -0.7500   -1.2990    0.0000 C   0  0  0  0  0  0  0  0  0  0  0  0
   -1.5000   -2.5981    0.0000 O   0  0  0  0  0  0  0  0  0  0  0  0
   -3.0000   -2.5981    0.0000 C   0  0  0  0  0  0  0  0  0  0  0  0
   -3.7500   -1.2990    0.0000 C   0  0  0  0  0  0  0  0  0  0  0  0
   -5.2500   -1.2990    0.0000 C   0  0  0  0  0  0  0  0  0  0  0  0
   -6.0000   -2.5981    0.0000 C   0  0  0  0  0  0  0  0  0  0  0  0
   -7.5000   -2.5981    0.0000 N   0  0  0  0  0  0  0  0  0  0  0  0
   -8.2500   -1.2990    0.0000 C   0  0  0  0  0  0  0  0  0  0  0  0
   -7.5000    0.0000    0.0000 O   0  0  0  0  0  0  0  0  0  0  0  0
   -9.7500   -1.2990    0.0000 N   0  0  0  0  0  0  0  0  0  0  0  0
  -10.5000    0.0000    0.0000 C   0  0  0  0  0  0  0  0  0  0  0  0
   -9.7500    1.2990    0.0000 C   0  0  0  0  0  0  0  0  0  0  0  0
  -10.5000    2.5981    0.0000 C   0  0  0  0  0  0  0  0  0  0  0  0
  -12.0000    2.5981    0.0000 C   0  0  0  0  0  0  0  0  0  0  0  0
  -12.7500    3.8971    0.0000 Cl  0  0  0  0  0  0  0  0  0  0  0  0
  -12.7500    1.2990    0.0000 C   0  0  0  0  0  0  0  0  0  0  0  0
  -12.0000    0.0000    0.0000 C   0  0  0  0  0  0  0  0  0  0  0  0
  -14.2500    1.2990    0.0000 C   0  0  0  0  0  0  0  0  0  0  0  0
  -15.7500    1.2990    0.0000 F   0  0  0  0  0  0  0  0  0  0  0  0
  -14.2500   -0.2010    0.0000 F   0  0  0  0  0  0  0  0  0  0  0  0
  -14.2500    2.7990    0.0000 F   0  0  0  0  0  0  0  0  0  0  0  0
   -5.2500   -3.8971    0.0000 C   0  0  0  0  0  0  0  0  0  0  0  0
   -6.0000   -5.1962    0.0000 F   0  0  0  0  0  0  0  0  0  0  0  0
   -3.7500   -3.8971    0.0000 C   0  0  0  0  0  0  0  0  0  0  0  0
   -1.5000    0.0000    0.0000 C   0  0  0  0  0  0  0  0  0  0  0  0
   -0.7500    1.2990    0.0000 C   0  0  0  0  0  0  0  0  0  0  0  0
    0.7500    1.2990    0.0000 N   0  0  0  0  0  0  0  0  0  0  0  0
  1  2  1  0
  2  3  1  0
  3  4  2  0
  3  5  1  0
  5  6  2  0
  6  7  1  0
  7  8  1  0
  8  9  1  0
  9 10  2  0
 10 11  1  0
 11 12  2  0
 12 13  1  0
 13 14  1  0
 14 15  2  0
 14 16  1  0
 16 17  1  0
 17 18  2  0
 18 19  1  0
 19 20  2  0
 20 21  1  0
 20 22  1  0
 22 23  2  0
 22 24  1  0
 24 25  1  0
 24 26  1  0
 24 27  1  0
 12 28  1  0
 28 29  1  0
 28 30  2  0
  7 31  2  0
 31 32  1  0
 32 33  2  0
 33  5  1  0
 30  9  1  0
 23 17  1  0
M  END
$$$$
276734
     RDKit          2D

 32 34  0  0  0  0  0  0  0  0999 V2000
    5.2500   -1.2990    0.0000 C   0  0  0  0  0  0  0  0  0  0  0  0
    3.7500   -1.2990    0.0000 N   0  0  0  0  0  0  0  0  0  0  0  0
    3.0000    0.0000    0.0000 C   0  0  0  0  0  0  0  0  0  0  0  0
    3.7500    1.2990    0.0000 O   0  0  0  0  0  0  0  0  0  0  0  0
    1.5000    0.0000    0.0000 C   0  0  0  0  0  0  0  0  0  0  0  0
    0.7500   -1.2990    0.0000 C   0  0  0  0  0  0  0  0  0  0  0  0
   -0.7500   -1.2990    0.0000 C   0  0  0  0  0  0  0  0  0  0  0  0
   -1.5000   -2.5981    0.0000 O   0  0  0  0  0  0  0  0  0  0  0  0
   -3.0000   -2.5981    0.0000 C   0  0  0  0  0  0  0  0  0  0  0  0
   -3.7500   -1.2990    0.0000 C   0  0  0  0  0  0  0  0  0  0  0  0
   -5.2500   -1.2990    0.0000 C   0  0  0  0  0  0  0  0  0  0  0  0
   -6.0000   -2.5981    0.0000 C   0  0  0  0  0  0  0  0  0  0  0  0
   -7.5000   -2.5981    0.0000 N   0  0  0  0  0  0  0  0  0  0  0  0
   -8.2500   -1.2990    0.0000 C   0  0  0  0  0  0  0  0  0  0  0  0
   -7.5000    0.0000    0.0000 O   0  0  0  0  0  0  0  0  0  0  0  0
   -9.7500   -1.2990    0.0000 N   0  0  0  0  0  0  0  0  0  0  0  0
  -10.5000    0.0000    0.0000 C   0  0  0  0  0  0  0  0  0  0  0  0
   -9.7500    1.2990    0.0000 C   0  0  0  0  0  0  0  0  0  0  0  0
  -10.5000    2.5981    0.0000 C   0  0  0  0  0  0  0  0  0  0  0  0
  -12.0000    2.5981    0.0000 C   0  0  0  0  0  0  0  0  0  0  0  0
  -12.7500    3.8971    0.0000 Cl  0  0  0  0  0  0  0  0  0  0  0  0
  -12.7500    1.2990    0.0000 C   0  0  0  0  0  0  0  0  0  0  0  0
  -12.0000    0.0000    0.0000 C   0  0  0  0  0  0  0  0  0  0  0  0
  -14.2500    1.2990    0.0000 C   0  0  0  0  0  0  0  0  0  0  0  0
  -15.7500    1.2990    0.0000 F   0  0  0  0  0  0  0  0  0  0  0  0
  -14.2500   -0.2010    0.0000 F   0  0  0  0  0  0  0  0  0  0  0  0
  -14.2500    2.7990    0.0000 F   0  0  0  0  0  0  0  0  0  0  0  0
   -5.2500   -3.8971    0.0000 C   0  0  0  0  0  0  0  0  0  0  0  0
   -3.7500   -3.8971    0.0000 C   0  0  0  0  0  0  0  0  0  0  0  0
   -1.5000    0.0000    0.0000 C   0  0  0  0  0  0  0  0  0  0  0  0
   -0.7500    1.2990    0.0000 C   0  0  0  0  0  0  0  0  0  0  0  0
    0.7500    1.2990    0.0000 N   0  0  0  0  0  0  0  0  0  0  0  0
  1  2  1  0
  2  3  1  0
  3  4  2  0
  3  5  1  0
  5  6  2  0
  6  7  1  0
  7  8  1  0
  8  9  1  0
  9 10  2  0
 10 11  1  0
 11 12  2  0
 12 13  1  0
 13 14  1  0
 14 15  2  0
 14 16  1  0
 16 17  1  0
 17 18  2  0
 18 19  1  0
 19 20  2  0
 20 21  1  0
 20 22  1  0
 22 23  2  0
 22 24  1  0
 24 25  1  0
 24 26  1  0
 24 27  1  0
 12 28  1  0
 28 29  2  0
  7 30  2  0
 30 31  1  0
 31 32  2  0
 32  5  1  0
 29  9  1  0
 23 17  1  0
M  END
$$$$
674436
     RDKit          2D

 43 45  0  0  0  0  0  0  0  0999 V2000
    5.2500   -1.2990    0.0000 C   0  0  0  0  0  0  0  0  0  0  0  0
    3.7500   -1.2990    0.0000 N   0  0  0  0  0  0  0  0  0  0  0  0
    3.0000    0.0000    0.0000 C   0  0  0  0  0  0  0  0  0  0  0  0
    3.7500    1.2990    0.0000 O   0  0  0  0  0  0  0  0  0  0  0  0
    1.5000    0.0000    0.0000 C   0  0  0  0  0  0  0  0  0  0  0  0
    0.7500   -1.2990    0.0000 C   0  0  0  0  0  0  0  0  0  0  0  0
   -0.7500   -1.2990    0.0000 C   0  0  0  0  0  0  0  0  0  0  0  0
   -1.5000   -2.5981    0.0000 O   0  0  0  0  0  0  0  0  0  0  0  0
   -3.0000   -2.5981    0.0000 C   0  0  0  0  0  0  0  0  0  0  0  0
   -3.7500   -1.2990    0.0000 C   0  0  0  0  0  0  0  0  0  0  0  0
   -5.2500   -1.2990    0.0000 C   0  0  0  0  0  0  0  0  0  0  0  0
   -6.0000   -2.5981    0.0000 C   0  0  0  0  0  0  0  0  0  0  0  0
   -7.5000   -2.5981    0.0000 N   0  0  0  0  0  0  0  0  0  0  0  0
   -8.2500   -1.2990    0.0000 C   0  0  0  0  0  0  0  0  0  0  0  0
   -7.5000    0.0000    0.0000 O   0  0  0  0  0  0  0  0  0  0  0  0
   -9.7500   -1.2990    0.0000 N   0  0  0  0  0  0  0  0  0  0  0  0
  -10.5000    0.0000    0.0000 C   0  0  0  0  0  0  0  0  0  0  0  0
   -9.7500    1.2990    0.0000 C   0  0  0  0  0  0  0  0  0  0  0  0
  -10.5000    2.5981    0.0000 C   0  0  0  0  0  0  0  0  0  0  0  0
  -12.0000    2.5981    0.0000 C   0  0  0  0  0  0  0  0  0  0  0  0
  -12.7500    3.8971    0.0000 Cl  0  0  0  0  0  0  0  0  0  0  0  0
  -12.7500    1.2990    0.0000 C   0  0  0  0  0  0  0  0  0  0  0  0
  -12.0000    0.0000    0.0000 C   0  0  0  0  0  0  0  0  0  0  0  0
  -14.2500    1.2990    0.0000 C   0  0  0  0  0  0  0  0  0  0  0  0
  -15.7500    1.2990    0.0000 F   0  0  0  0  0  0  0  0  0  0  0  0
  -14.2500   -0.2010    0.0000 F   0  0  0  0  0  0  0  0  0  0  0  0
  -14.2500    2.7990    0.0000 F   0  0  0  0  0  0  0  0  0  0  0  0
   -5.2500   -3.8971    0.0000 C   0  0  0  0  0  0  0  0  0  0  0  0
   -3.7500   -3.8971    0.0000 C   0  0  0  0  0  0  0  0  0  0  0  0
   -1.5000    0.0000    0.0000 C   0  0  0  0  0  0  0  0  0  0  0  0
   -0.7500    1.2990    0.0000 C   0  0  0  0  0  0  0  0  0  0  0  0
    0.7500    1.2990    0.0000 N   0  0  0  0  0  0  0  0  0  0  0  0
    3.0000    6.3971    0.0000 C   0  0  0  0  0  0  0  0  0  0  0  0
    1.5000    6.3971    0.0000 C   0  0  0  0  0  0  0  0  0  0  0  0
    0.7500    5.0981    0.0000 C   0  0  0  0  0  0  0  0  0  0  0  0
   -0.7500    5.0981    0.0000 C   0  0  0  0  0  0  0  0  0  0  0  0
   -1.5000    6.3971    0.0000 C   0  0  0  0  0  0  0  0  0  0  0  0
   -0.7500    7.6962    0.0000 C   0  0  0  0  0  0  0  0  0  0  0  0
    0.7500    7.6962    0.0000 C   0  0  0  0  0  0  0  0  0  0  0  0
   -3.0000    6.3971    0.0000 S   0  0  0  0  0  0  0  0  0  0  0  0
   -3.0000    7.8971    0.0000 O   0  0  0  0  0  0  0  0  0  0  0  0
   -3.0000    4.8971    0.0000 O   0  0  0  0  0  0  0  0  0  0  0  0
   -4.5000    6.3971    0.0000 O   0  0  0  0  0  0  0  0  0  0  0  0
  1  2  1  0
  2  3  1  0
  3  4  2  0
  3  5  1  0
  5  6  2  0
  6  7  1  0
  7  8  1  0
  8  9  1  0
  9 10  2  0
 10 11  1  0
 11 12  2  0
 12 13  1  0
 13 14  1  0
 14 15  2  0
 14 16  1  0
 16 17  1  0
 17 18  2  0
 18 19  1  0
 19 20  2  0
 20 21  1  0
 20 22  1  0
 22 23  2  0
 22 24  1  0
 24 25  1  0
 24 26  1  0
 24 27  1  0
 12 28  1  0
 28 29  2  0
  7 30  2  0
 30 31  1  0
 31 32  2  0
 33 34  1  0
 34 35  2  0
 35 36  1  0
 36 37  2  0
 37 38  1  0
 38 39  2  0
 37 40  1  0
 40 41  2  0
 40 42  2  0
 40 43  1  0
 32  5  1  0
 29  9  1  0
 23 17  1  0
 39 34  1  0
M  END
$$$$
630886
     RDKit          2D

 32 34  0  0  0  0  0  0  0  0999 V2000
    5.2500   -1.2990    0.0000 C   0  0  0  0  0  0  0  0  0  0  0  0
    3.7500   -1.2990    0.0000 N   0  0  0  0  0  0  0  0  0  0  0  0
    3.0000    0.0000    0.0000 C   0  0  0  0  0  0  0  0  0  0  0  0
    3.7500    1.2990    0.0000 O   0  0  0  0  0  0  0  0  0  0  0  0
    1.5000    0.0000    0.0000 C   0  0  0  0  0  0  0  0  0  0  0  0
    0.7500   -1.2990    0.0000 C   0  0  0  0  0  0  0  0  0  0  0  0
   -0.7500   -1.2990    0.0000 C   0  0  0  0  0  0  0  0  0  0  0  0
   -1.5000    0.0000    0.0000 C   0  0  0  0  0  0  0  0  0  0  0  0
   -0.7500    1.2990    0.0000 C   0  0  0  0  0  0  0  0  0  0  0  0
    0.7500    1.2990    0.0000 C   0  0  0  0  0  0  0  0  0  0  0  0
    1.5000    2.5981    0.0000 F   0  0  0  0  0  0  0  0  0  0  0  0
   -3.0000    0.0000    0.0000 N   0  0  0  0  0  0  0  0  0  0  0  0
   -3.8817   -1.2135    0.0000 C   0  0  0  0  0  0  0  0  0  0  0  0
   -3.4182   -2.6401    0.0000 S   0  0  0  0  0  0  0  0  0  0  0  0
   -5.3083   -0.7500    0.0000 N   0  0  0  0  0  0  0  0  0  0  0  0
   -5.3083    0.7500    0.0000 C   0  0  0  0  0  0  0  0  0  0  0  0
   -6.5218    1.6317    0.0000 O   0  0  0  0  0  0  0  0  0  0  0  0
   -3.8817    1.2135    0.0000 C   0  0  0  0  0  0  0  0  0  0  0  0
   -4.4918    2.5838    0.0000 C   0  0  0  0  0  0  0  0  0  0  0  0
   -2.5826    1.9635    0.0000 C   0  0  0  0  0  0  0  0  0  0  0  0
   -6.5218   -1.6317    0.0000 C   0  0  0  0  0  0  0  0  0  0  0  0
   -7.8921   -1.0216    0.0000 C   0  0  0  0  0  0  0  0  0  0  0  0
   -9.1056   -1.9033    0.0000 C   0  0  0  0  0  0  0  0  0  0  0  0
   -8.9488   -3.3950    0.0000 C   0  0  0  0  0  0  0  0  0  0  0  0
  -10.1624   -4.2767    0.0000 C   0  0  0  0  0  0  0  0  0  0  0  0
  -11.3759   -5.1584    0.0000 N   0  0  0  0  0  0  0  0  0  0  0  0
   -7.5785   -4.0051    0.0000 C   0  0  0  0  0  0  0  0  0  0  0  0
   -6.3650   -3.1235    0.0000 C   0  0  0  0  0  0  0  0  0  0  0  0
   -7.4217   -5.4969    0.0000 C   0  0  0  0  0  0  0  0  0  0  0  0
   -7.2649   -6.9887    0.0000 F   0  0  0  0  0  0  0  0  0  0  0  0
   -5.9299   -5.3401    0.0000 F   0  0  0  0  0  0  0  0  0  0  0  0
   -8.9135   -5.6537    0.0000 F   0  0  0  0  0  0  0  0  0  0  0  0
  1  2  1  0
  2  3  1  0
  3  4  2  0
  3  5  1  0
  5  6  2  0
  6  7  1  0
  7  8  2  0
  8  9  1  0
  9 10  2  0
 10 11  1  0
  8 12  1  0
 12 13  1  0
 13 14  2  0
 13 15  1  0
 15 16  1  0
 16 17  2  0
 16 18  1  0
 18 19  1  0
 18 20  1  0
 15 21  1  0
 21 22  2  0
 22 23  1  0
 23 24  2  0
 24 25  1  0
 25 26  3  0
 24 27  1  0
 27 28  2  0
 27 29  1  0
 29 30  1  0
 29 31  1  0
 29 32  1  0
 10  5  1  0
 18 12  1  0
 28 21  1  0
M  END
$$$$
716337
     RDKit          2D

 28 31  0  0  0  0  0  0  0  0999 V2000
    5.2500   -6.4952    0.0000 C   0  0  0  0  0  0  0  0  0  0  0  0
    3.7500   -6.4952    0.0000 N   0  0  0  0  0  0  0  0  0  0  0  0
    3.0000   -5.1962    0.0000 C   0  0  0  0  0  0  0  0  0  0  0  0
    3.7500   -3.8971    0.0000 O   0  0  0  0  0  0  0  0  0  0  0  0
    1.5000   -5.1962    0.0000 C   0  0  0  0  0  0  0  0  0  0  0  0
    0.7500   -6.4952    0.0000 C   0  0  0  0  0  0  0  0  0  0  0  0
   -0.7500   -6.4952    0.0000 C   0  0  0  0  0  0  0  0  0  0  0  0
   -1.5000   -5.1962    0.0000 C   0  0  0  0  0  0  0  0  0  0  0  0
   -0.7500   -3.8971    0.0000 C   0  0  0  0  0  0  0  0  0  0  0  0
    0.7500   -3.8971    0.0000 C   0  0  0  0  0  0  0  0  0  0  0  0
    1.5000   -2.5981    0.0000 S   0  0  0  0  0  0  0  0  0  0  0  0
    0.7500   -1.2990    0.0000 C   0  0  0  0  0  0  0  0  0  0  0  0
    1.5000    0.0000    0.0000 C   0  0  0  0  0  0  0  0  0  0  0  0
    0.7500    1.2990    0.0000 C   0  0  0  0  0  0  0  0  0  0  0  0
   -0.7500    1.2990    0.0000 C   0  0  0  0  0  0  0  0  0  0  0  0
   -1.7537    2.4138    0.0000 C   0  0  0  0  0  0  0  0  0  0  0  0
   -1.4418    3.8810    0.0000 C   0  0  0  0  0  0  0  0  0  0  0  0
   -2.5565    4.8847    0.0000 C   0  0  0  0  0  0  0  0  0  0  0  0
   -2.2447    6.3519    0.0000 C   0  0  0  0  0  0  0  0  0  0  0  0
   -0.8181    6.8154    0.0000 C   0  0  0  0  0  0  0  0  0  0  0  0
   -0.5062    8.2826    0.0000 C   0  0  0  0  0  0  0  0  0  0  0  0
   -1.6209    9.2863    0.0000 C   0  0  0  0  0  0  0  0  0  0  0  0
   -3.0475    8.8228    0.0000 C   0  0  0  0  0  0  0  0  0  0  0  0
   -3.3594    7.3556    0.0000 N   0  0  0  0  0  0  0  0  0  0  0  0
   -3.1240    1.8037    0.0000 N   0  0  0  0  0  0  0  0  0  0  0  0
   -2.9672    0.3119    0.0000 N   0  0  0  0  0  0  0  0  0  0  0  0
   -1.5000    0.0000    0.0000 C   0  0  0  0  0  0  0  0  0  0  0  0
   -0.7500   -1.2990    0.0000 C   0  0  0  0  0  0  0  0  0  0  0  0
  1  2  1  0
  2  3  1  0
  3  4  2  0
  3  5  1  0
  5  6  2  0
  6  7  1  0
  7  8  2  0
  8  9  1  0
  9 10  2  0
 10 11  1  0
 11 12  1  0
 12 13  2  0
 13 14  1  0
 14 15  2  0
 15 16  1  0
 16 17  1  0
 17 18  2  0
 18 19  1  0
 19 20  2  0
 20 21  1  0
 21 22  2  0
 22 23  1  0
 23 24  2  0
 16 25  2  0
 25 26  1  0
 26 27  1  0
 27 28  2  0
 10  5  1  0
 28 12  1  0
 27 15  1  0
 24 19  1  0
M  END
$$$$
880
     RDKit          2D

 12 13  0  0  0  0  0  0  0  0999 V2000
   -2.3313    3.9271    0.0000 C   0  0  0  0  0  0  0  0  0  0  0  0
   -2.3313    2.4271    0.0000 N   0  0  0  0  0  0  0  0  0  0  0  0
   -1.0323    1.6771    0.0000 C   0  0  0  0  0  0  0  0  0  0  0  0
   -0.4222    3.0474    0.0000 C   0  0  0  0  0  0  0  0  0  0  0  0
    0.3943    1.2135    0.0000 C   0  0  0  0  0  0  0  0  0  0  0  0
    1.2760    0.0000    0.0000 C   0  0  0  0  0  0  0  0  0  0  0  0
    0.3943   -1.2135    0.0000 C   0  0  0  0  0  0  0  0  0  0  0  0
   -1.0323   -0.7500    0.0000 C   0  0  0  0  0  0  0  0  0  0  0  0
   -1.0323    0.7500    0.0000 C   0  0  0  0  0  0  0  0  0  0  0  0
   -1.9140    0.4635    0.0000 C   0  0  0  0  0  0  0  0  0  0  0  0
   -3.0287    1.4672    0.0000 C   0  0  0  0  0  0  0  0  0  0  0  0
   -3.0287   -0.5402    0.0000 C   0  0  0  0  0  0  0  0  0  0  0  0
  1  2  1  0
  2  3  1  0
  3  4  1  0
  3  5  1  0
  5  6  1  0
  6  7  1  0
  7  8  1  0
  8  9  1  0
  8 10  1  0
 10 11  1  0
 10 12  1  0
 10  3  1  0
  9  5  1  0
M  END
$$$$
2431
     RDKit          2D

 21 23  0  0  0  0  0  0  0  0999 V2000
    2.3006   -6.3527    0.0000 C   0  0  0  0  0  0  0  0  0  0  0  0
    2.5242   -4.8694    0.0000 N   0  0  0  0  0  0  0  0  0  0  0  0
    1.3515   -3.9342    0.0000 C   0  0  0  0  0  0  0  0  0  0  0  0
    1.6852   -2.4718    0.0000 N   0  0  0  0  0  0  0  0  0  0  0  0
    0.7500   -1.2990    0.0000 C   0  0  0  0  0  0  0  0  0  0  0  0
    1.5000    0.0000    0.0000 C   0  0  0  0  0  0  0  0  0  0  0  0
    0.7500    1.2990    0.0000 C   0  0  0  0  0  0  0  0  0  0  0  0
   -0.7500    1.2990    0.0000 C   0  0  0  0  0  0  0  0  0  0  0  0
   -1.5000    2.5981    0.0000 Cl  0  0  0  0  0  0  0  0  0  0  0  0
   -1.5000    0.0000    0.0000 C   0  0  0  0  0  0  0  0  0  0  0  0
   -0.7500   -1.2990    0.0000 C   0  0  0  0  0  0  0  0  0  0  0  0
   -1.6852   -2.4718    0.0000 C   0  0  0  0  0  0  0  0  0  0  0  0
   -1.3515   -3.9342    0.0000 N   0  0  0  0  0  4  0  0  0  0  0  0
   -2.5242   -4.8694    0.0000 O   0  0  0  0  0  1  0  0  0  0  0  0
   -0.0000   -4.5850    0.0000 C   0  0  0  0  0  0  0  0  0  0  0  0
   -3.1476   -2.1380    0.0000 C   0  0  0  0  0  0  0  0  0  0  0  0
   -3.5898   -0.7046    0.0000 C   0  0  0  0  0  0  0  0  0  0  0  0
   -5.0522   -0.3709    0.0000 C   0  0  0  0  0  0  0  0  0  0  0  0
   -6.0724   -1.4704    0.0000 C   0  0  0  0  0  0  0  0  0  0  0  0
   -5.6303   -2.9038    0.0000 C   0  0  0  0  0  0  0  0  0  0  0  0
   -4.1679   -3.2376    0.0000 C   0  0  0  0  0  0  0  0  0  0  0  0
  1  2  1  0
  2  3  1  0
  3  4  2  0
  4  5  1  0
  5  6  2  0
  6  7  1  0
  7  8  2  0
  8  9  1  0
  8 10  1  0
 10 11  2  0
 11 12  1  0
 12 13  2  0
 13 14  1  0
 13 15  1  0
 12 16  1  0
 16 17  2  0
 17 18  1  0
 18 19  2  0
 19 20  1  0
 20 21  2  0
 15  3  1  0
 11  5  1  0
 21 16  1  0
M  CHG  2  13   1  14  -1
M  END
$$$$
657299
     RDKit          2D

 51 55  0  0  0  0  0  0  0  0999 V2000
   -3.0000    5.1962    0.0000 C   0  0  0  0  0  0  0  0  0  0  0  0
   -1.5000    5.1962    0.0000 N   0  0  0  0  0  0  0  0  0  0  0  0
   -0.7500    6.4952    0.0000 C   0  0  0  0  0  0  0  0  0  0  0  0
    0.7500    6.4952    0.0000 C   0  0  0  0  0  0  0  0  0  0  0  0
    1.5000    5.1962    0.0000 O   0  0  0  0  0  0  0  0  0  0  0  0
    1.5000    7.7942    0.0000 O   0  0  0  0  0  0  0  0  0  0  0  0
    3.0000    7.7942    0.0000 C   0  0  0  0  0  0  0  0  0  0  0  0
    3.7500    9.0933    0.0000 C   0  0  0  0  0  0  0  0  0  0  0  0
    3.0000   10.3923    0.0000 C   0  0  0  0  0  0  0  0  0  0  0  0
    3.7500   11.6913    0.0000 C   0  0  0  0  0  0  0  0  0  0  0  0
    5.2500   11.6913    0.0000 C   0  0  0  0  0  0  0  0  0  0  0  0
    6.0000   10.3923    0.0000 N   0  0  0  0  0  0  0  0  0  0  0  0
    5.2500    9.0933    0.0000 C   0  0  0  0  0  0  0  0  0  0  0  0
    6.0000    7.7942    0.0000 N   0  0  0  0  0  0  0  0  0  0  0  0
    7.5000    7.7942    0.0000 C   0  0  0  0  0  0  0  0  0  0  0  0
    5.2500    6.4952    0.0000 C   0  0  0  0  0  0  0  0  0  0  0  0
    3.7500    6.4952    0.0000 O   0  0  0  0  0  0  0  0  0  0  0  0
    6.0000    5.1962    0.0000 O   0  0  0  0  0  0  0  0  0  0  0  0
    5.2500    3.8971    0.0000 C   0  0  0  0  0  0  0  0  0  0  0  0
    3.7500    3.8971    0.0000 C   0  0  0  0  0  0  0  0  0  0  0  0
    6.0000    2.5981    0.0000 N   0  0  0  0  0  4  0  0  0  0  0  0
    7.4918    2.4413    0.0000 C   0  0  0  0  0  0  0  0  0  0  0  0
    7.8037    0.9741    0.0000 N   0  0  0  0  0  0  0  0  0  0  0  0
    6.5046    0.2241    0.0000 N   0  0  0  0  0  0  0  0  0  0  0  0
    6.3478   -1.2677    0.0000 C   0  0  0  0  0  0  0  0  0  0  0  0
    7.5613   -2.1494    0.0000 C   0  0  0  0  0  0  0  0  0  0  0  0
    8.7749   -3.0311    0.0000 O   0  0  0  0  0  0  0  0  0  0  0  0
    8.4430   -0.9359    0.0000 C   0  0  0  0  0  0  0  0  0  0  0  0
    8.2321    0.2607    0.0000 C   0  0  0  0  0  0  0  0  0  0  0  0
    9.9348   -1.0927    0.0000 C   0  0  0  0  0  0  0  0  0  0  0  0
   10.6848   -2.3917    0.0000 N   0  0  0  0  0  0  0  0  0  0  0  0
   12.1520   -2.0798    0.0000 C   0  0  0  0  0  0  0  0  0  0  0  0
   12.3088   -0.5881    0.0000 C   0  0  0  0  0  0  0  0  0  0  0  0
   10.9385    0.0221    0.0000 S   0  0  0  0  0  0  0  0  0  0  0  0
   13.2667   -3.0835    0.0000 C   0  0  0  0  0  0  0  0  0  0  0  0
   14.6933   -2.6200    0.0000 C   0  0  0  0  0  0  0  0  0  0  0  0
   15.8080   -3.6237    0.0000 C   0  0  0  0  0  0  0  0  0  0  0  0
   15.4962   -5.0909    0.0000 C   0  0  0  0  0  0  0  0  0  0  0  0
   14.0696   -5.5544    0.0000 C   0  0  0  0  0  0  0  0  0  0  0  0
   12.9549   -4.5508    0.0000 C   0  0  0  0  0  0  0  0  0  0  0  0
   16.6109   -6.0946    0.0000 C   0  0  0  0  0  0  0  0  0  0  0  0
   17.7256   -7.0983    0.0000 N   0  0  0  0  0  0  0  0  0  0  0  0
    6.6797   -3.3629    0.0000 C   0  0  0  0  0  0  0  0  0  0  0  0
    5.1879   -3.2061    0.0000 C   0  0  0  0  0  0  0  0  0  0  0  0
    4.3062   -4.4197    0.0000 C   0  0  0  0  0  0  0  0  0  0  0  0
    2.8144   -4.2629    0.0000 F   0  0  0  0  0  0  0  0  0  0  0  0
    4.9163   -5.7900    0.0000 C   0  0  0  0  0  0  0  0  0  0  0  0
    6.4081   -5.9468    0.0000 C   0  0  0  0  0  0  0  0  0  0  0  0
    7.2898   -4.7332    0.0000 C   0  0  0  0  0  0  0  0  0  0  0  0
    8.7816   -4.8900    0.0000 F   0  0  0  0  0  0  0  0  0  0  0  0
    5.3899    1.2278    0.0000 C   0  0  0  0  0  0  0  0  0  0  0  0
  1  2  1  0
  2  3  1  0
  3  4  1  0
  4  5  2  0
  4  6  1  0
  6  7  1  0
  7  8  1  0
  8  9  2  0
  9 10  1  0
 10 11  2  0
 11 12  1  0
 12 13  2  0
 13 14  1  0
 14 15  1  0
 14 16  1  0
 16 17  2  0
 16 18  1  0
 18 19  1  0
 19 20  1  0
 19 21  1  0
 21 22  1  0
 22 23  2  0
 23 24  1  0
 24 25  1  0
 25 26  1  0
 26 27  1  6
 26 28  1  0
 28 29  1  1
 28 30  1  0
 30 31  2  0
 31 32  1  0
 32 33  2  0
 33 34  1  0
 32 35  1  0
 35 36  2  0
 36 37  1  0
 37 38  2  0
 38 39  1  0
 39 40  2  0
 38 41  1  0
 41 42  3  0
 26 43  1  0
 43 44  2  0
 44 45  1  0
 45 46  1  0
 45 47  2  0
 47 48  1  0
 48 49  2  0
 49 50  1  0
 24 51  1  0
 13  8  1  0
 51 21  2  0
 34 30  1  0
 40 35  1  0
 49 43  1  0
M  CHG  1  21   1
M  END
$$$$
1626764
     RDKit          2D

 56 59  0  0  0  0  0  0  0  0999 V2000
   -3.0000    5.1962    0.0000 C   0  0  0  0  0  0  0  0  0  0  0  0
   -1.5000    5.1962    0.0000 N   0  0  0  0  0  0  0  0  0  0  0  0
   -0.7500    6.4952    0.0000 C   0  0  0  0  0  0  0  0  0  0  0  0
    0.7500    6.4952    0.0000 C   0  0  0  0  0  0  0  0  0  0  0  0
    1.5000    5.1962    0.0000 O   0  0  0  0  0  0  0  0  0  0  0  0
    1.5000    7.7942    0.0000 O   0  0  0  0  0  0  0  0  0  0  0  0
    3.0000    7.7942    0.0000 C   0  0  0  0  0  0  0  0  0  0  0  0
    3.7500    9.0933    0.0000 C   0  0  0  0  0  0  0  0  0  0  0  0
    3.0000   10.3923    0.0000 C   0  0  0  0  0  0  0  0  0  0  0  0
    3.7500   11.6913    0.0000 C   0  0  0  0  0  0  0  0  0  0  0  0
    5.2500   11.6913    0.0000 C   0  0  0  0  0  0  0  0  0  0  0  0
    6.0000   10.3923    0.0000 N   0  0  0  0  0  0  0  0  0  0  0  0
    5.2500    9.0933    0.0000 C   0  0  0  0  0  0  0  0  0  0  0  0
    6.0000    7.7942    0.0000 N   0  0  0  0  0  0  0  0  0  0  0  0
    7.5000    7.7942    0.0000 C   0  0  0  0  0  0  0  0  0  0  0  0
    5.2500    6.4952    0.0000 C   0  0  0  0  0  0  0  0  0  0  0  0
    3.7500    6.4952    0.0000 O   0  0  0  0  0  0  0  0  0  0  0  0
    6.0000    5.1962    0.0000 O   0  0  0  0  0  0  0  0  0  0  0  0
    5.2500    3.8971    0.0000 C   0  0  0  0  0  0  0  0  0  0  0  0
    3.7500    3.8971    0.0000 C   0  0  0  0  0  0  0  0  0  0  0  0
    6.0000    2.5981    0.0000 N   0  0  0  0  0  4  0  0  0  0  0  0
    7.4918    2.4413    0.0000 C   0  0  0  0  0  0  0  0  0  0  0  0
    7.8037    0.9741    0.0000 N   0  0  0  0  0  0  0  0  0  0  0  0
    6.5046    0.2241    0.0000 N   0  0  0  0  0  0  0  0  0  0  0  0
    6.3478   -1.2677    0.0000 C   0  0  0  0  0  0  0  0  0  0  0  0
    7.5613   -2.1494    0.0000 C   0  0  0  0  0  0  0  0  0  0  0  0
    8.7749   -3.0311    0.0000 O   0  0  0  0  0  0  0  0  0  0  0  0
    8.4430   -0.9359    0.0000 C   0  0  0  0  0  0  0  0  0  0  0  0
    8.2321    0.2607    0.0000 C   0  0  0  0  0  0  0  0  0  0  0  0
    9.9348   -1.0927    0.0000 C   0  0  0  0  0  0  0  0  0  0  0  0
   10.6848   -2.3917    0.0000 N   0  0  0  0  0  0  0  0  0  0  0  0
   12.1520   -2.0798    0.0000 C   0  0  0  0  0  0  0  0  0  0  0  0
   12.3088   -0.5881    0.0000 C   0  0  0  0  0  0  0  0  0  0  0  0
   10.9385    0.0221    0.0000 S   0  0  0  0  0  0  0  0  0  0  0  0
   13.2667   -3.0835    0.0000 C   0  0  0  0  0  0  0  0  0  0  0  0
   14.6933   -2.6200    0.0000 C   0  0  0  0  0  0  0  0  0  0  0  0
   15.8080   -3.6237    0.0000 C   0  0  0  0  0  0  0  0  0  0  0  0
   15.4962   -5.0909    0.0000 C   0  0  0  0  0  0  0  0  0  0  0  0
   14.0696   -5.5544    0.0000 C   0  0  0  0  0  0  0  0  0  0  0  0
   12.9549   -4.5508    0.0000 C   0  0  0  0  0  0  0  0  0  0  0  0
   16.6109   -6.0946    0.0000 C   0  0  0  0  0  0  0  0  0  0  0  0
   17.7256   -7.0983    0.0000 N   0  0  0  0  0  0  0  0  0  0  0  0
    6.6797   -3.3629    0.0000 C   0  0  0  0  0  0  0  0  0  0  0  0
    5.1879   -3.2061    0.0000 C   0  0  0  0  0  0  0  0  0  0  0  0
    4.3062   -4.4197    0.0000 C   0  0  0  0  0  0  0  0  0  0  0  0
    2.8144   -4.2629    0.0000 F   0  0  0  0  0  0  0  0  0  0  0  0
    4.9163   -5.7900    0.0000 C   0  0  0  0  0  0  0  0  0  0  0  0
    6.4081   -5.9468    0.0000 C   0  0  0  0  0  0  0  0  0  0  0  0
    7.2898   -4.7332    0.0000 C   0  0  0  0  0  0  0  0  0  0  0  0
    8.7816   -4.8900    0.0000 F   0  0  0  0  0  0  0  0  0  0  0  0
    5.3899    1.2278    0.0000 C   0  0  0  0  0  0  0  0  0  0  0  0
    0.0000   13.2404    0.0000 O   0  0  0  0  0  0  0  0  0  0  0  0
    1.2990   13.9904    0.0000 S   0  0  0  0  0  0  0  0  0  0  0  0
    0.5490   15.2894    0.0000 O   0  0  0  0  0  0  0  0  0  0  0  0
    2.0490   12.6913    0.0000 O   0  0  0  0  0  0  0  0  0  0  0  0
    2.5981   14.7404    0.0000 O   0  0  0  0  0  1  0  0  0  0  0  0
  1  2  1  0
  2  3  1  0
  3  4  1  0
  4  5  2  0
  4  6  1  0
  6  7  1  0
  7  8  1  0
  8  9  2  0
  9 10  1  0
 10 11  2  0
 11 12  1  0
 12 13  2  0
 13 14  1  0
 14 15  1  0
 14 16  1  0
 16 17  2  0
 16 18  1  0
 18 19  1  0
 19 20  1  0
 19 21  1  0
 21 22  1  0
 22 23  2  0
 23 24  1  0
 24 25  1  0
 25 26  1  0
 26 27  1  6
 26 28  1  0
 28 29  1  1
 28 30  1  0
 30 31  2  0
 31 32  1  0
 32 33  2  0
 33 34  1  0
 32 35  1  0
 35 36  2  0
 36 37  1  0
 37 38  2  0
 38 39  1  0
 39 40  2  0
 38 41  1  0
 41 42  3  0
 26 43  1  0
 43 44  2  0
 44 45  1  0
 45 46  1  0
 45 47  2  0
 47 48  1  0
 48 49  2  0
 49 50  1  0
 24 51  1  0
 52 53  1  0
 53 54  2  0
 53 55  2  0
 53 56  1  0
 13  8  1  0
 51 21  2  0
 34 30  1  0
 40 35  1  0
 49 43  1  0
M  CHG  2  21   1  56  -1
M  END
$$$$
651088
     RDKit          2D

 24 27  0  0  0  0  0  0  0  0999 V2000
  -10.9896   -0.1063    0.0000 C   0  0  0  0  0  0  0  0  0  0  0  0
   -9.5853    0.4208    0.0000 N   0  0  0  0  0  0  0  0  0  0  0  0
   -8.4267   -0.5319    0.0000 C   0  0  0  0  0  0  0  0  0  0  0  0
   -7.0223   -0.0048    0.0000 C   0  0  0  0  0  0  0  0  0  0  0  0
   -6.7766    1.4749    0.0000 C   0  0  0  0  0  0  0  0  0  0  0  0
   -5.3722    2.0020    0.0000 C   0  0  0  0  0  0  0  0  0  0  0  0
   -4.2136    1.0493    0.0000 C   0  0  0  0  0  0  0  0  0  0  0  0
   -4.4593   -0.4305    0.0000 C   0  0  0  0  0  0  0  0  0  0  0  0
   -5.8637   -0.9575    0.0000 C   0  0  0  0  0  0  0  0  0  0  0  0
   -2.8093    1.5763    0.0000 C   0  0  0  0  0  0  0  0  0  0  0  0
   -2.4102    3.0223    0.0000 N   0  0  0  0  0  0  0  0  0  0  0  0
   -0.9117    3.0896    0.0000 C   0  0  0  0  0  0  0  0  0  0  0  0
    0.1081    4.1904    0.0000 C   0  0  0  0  0  0  0  0  0  0  0  0
    1.5798    3.9006    0.0000 C   0  0  0  0  0  0  0  0  0  0  0  0
    2.5667    5.0302    0.0000 F   0  0  0  0  0  0  0  0  0  0  0  0
    2.0647    2.4811    0.0000 C   0  0  0  0  0  0  0  0  0  0  0  0
    1.0777    1.3515    0.0000 C   0  0  0  0  0  0  0  0  0  0  0  0
    1.7286    0.0000    0.0000 C   0  0  0  0  0  0  0  0  0  0  0  0
    3.2286   -0.0000    0.0000 O   0  0  0  0  0  0  0  0  0  0  0  0
    1.0777   -1.3515    0.0000 N   0  0  0  0  0  0  0  0  0  0  0  0
   -0.3846   -1.6852    0.0000 C   0  0  0  0  0  0  0  0  0  0  0  0
   -1.5574   -0.7500    0.0000 C   0  0  0  0  0  0  0  0  0  0  0  0
   -1.5574    0.7500    0.0000 C   0  0  0  0  0  0  0  0  0  0  0  0
   -0.3846    1.6852    0.0000 C   0  0  0  0  0  0  0  0  0  0  0  0
  1  2  1  0
  2  3  1  0
  3  4  1  0
  4  5  2  0
  5  6  1  0
  6  7  2  0
  7  8  1  0
  8  9  2  0
  7 10  1  0
 10 11  1  0
 11 12  1  0
 12 13  2  0
 13 14  1  0
 14 15  1  0
 14 16  2  0
 16 17  1  0
 17 18  1  0
 18 19  2  0
 18 20  1  0
 20 21  1  0
 21 22  1  0
 22 23  1  0
 23 24  1  0
  9  4  1  0
 23 10  2  0
 24 12  1  0
 24 17  2  0
M  END
$$$$
2096419
     RDKit          2D

 39 43  0  0  0  0  0  0  0  0999 V2000
  -10.9896   -0.1063    0.0000 C   0  0  0  0  0  0  0  0  0  0  0  0
   -9.5853    0.4208    0.0000 N   0  0  0  0  0  0  0  0  0  0  0  0
   -8.4267   -0.5319    0.0000 C   0  0  0  0  0  0  0  0  0  0  0  0
   -7.0223   -0.0048    0.0000 C   0  0  0  0  0  0  0  0  0  0  0  0
   -6.7766    1.4749    0.0000 C   0  0  0  0  0  0  0  0  0  0  0  0
   -5.3722    2.0020    0.0000 C   0  0  0  0  0  0  0  0  0  0  0  0
   -4.2136    1.0493    0.0000 C   0  0  0  0  0  0  0  0  0  0  0  0
   -4.4593   -0.4305    0.0000 C   0  0  0  0  0  0  0  0  0  0  0  0
   -5.8637   -0.9575    0.0000 C   0  0  0  0  0  0  0  0  0  0  0  0
   -2.8093    1.5763    0.0000 C   0  0  0  0  0  0  0  0  0  0  0  0
   -2.4102    3.0223    0.0000 N   0  0  0  0  0  0  0  0  0  0  0  0
   -0.9117    3.0896    0.0000 C   0  0  0  0  0  0  0  0  0  0  0  0
    0.1081    4.1904    0.0000 C   0  0  0  0  0  0  0  0  0  0  0  0
    1.5798    3.9006    0.0000 C   0  0  0  0  0  0  0  0  0  0  0  0
    2.5667    5.0302    0.0000 F   0  0  0  0  0  0  0  0  0  0  0  0
    2.0647    2.4811    0.0000 C   0  0  0  0  0  0  0  0  0  0  0  0
    1.0777    1.3515    0.0000 C   0  0  0  0  0  0  0  0  0  0  0  0
    1.7286    0.0000    0.0000 C   0  0  0  0  0  0  0  0  0  0  0  0
    3.2286   -0.0000    0.0000 O   0  0  0  0  0  0  0  0  0  0  0  0
    1.0777   -1.3515    0.0000 N   0  0  0  0  0  0  0  0  0  0  0  0
   -0.3846   -1.6852    0.0000 C   0  0  0  0  0  0  0  0  0  0  0  0
   -1.5574   -0.7500    0.0000 C   0  0  0  0  0  0  0  0  0  0  0  0
   -1.5574    0.7500    0.0000 C   0  0  0  0  0  0  0  0  0  0  0  0
   -0.3846    1.6852    0.0000 C   0  0  0  0  0  0  0  0  0  0  0  0
    2.6004   11.6038    0.0000 C   0  0  0  0  0  0  0  0  0  0  0  0
    1.2760   10.8997    0.0000 C   0  0  0  0  0  0  0  0  0  0  0  0
    2.6004   10.1956    0.0000 C   0  0  0  0  0  0  0  0  0  0  0  0
    0.3943   12.1132    0.0000 C   0  0  0  0  0  0  0  0  0  0  0  0
   -1.0323   11.6497    0.0000 C   0  0  0  0  0  0  0  0  0  0  0  0
   -1.0323   10.1497    0.0000 C   0  0  0  0  0  0  0  0  0  0  0  0
    0.3943    9.6862    0.0000 C   0  0  0  0  0  0  0  0  0  0  0  0
    0.8578    8.2596    0.0000 C   0  0  0  0  0  0  0  0  0  0  0  0
   -0.1459    7.1449    0.0000 S   0  0  0  0  0  0  0  0  0  0  0  0
    0.9688    6.1412    0.0000 O   0  0  0  0  0  0  0  0  0  0  0  0
   -1.2606    8.1486    0.0000 O   0  0  0  0  0  0  0  0  0  0  0  0
   -1.1496    6.0302    0.0000 O   0  0  0  0  0  0  0  0  0  0  0  0
    1.8209   10.1497    0.0000 C   0  0  0  0  0  0  0  0  0  0  0  0
    3.0344    9.2680    0.0000 O   0  0  0  0  0  0  0  0  0  0  0  0
    1.8209   11.6497    0.0000 C   0  0  0  0  0  0  0  0  0  0  0  0
  1  2  1  0
  2  3  1  0
  3  4  1  0
  4  5  2  0
  5  6  1  0
  6  7  2  0
  7  8  1  0
  8  9  2  0
  7 10  1  0
 10 11  1  0
 11 12  1  0
 12 13  2  0
 13 14  1  0
 14 15  1  0
 14 16  2  0
 16 17  1  0
 17 18  1  0
 18 19  2  0
 18 20  1  0
 20 21  1  0
 21 22  1  0
 22 23  1  0
 23 24  1  0
 25 26  1  0
 26 27  1  0
 26 28  1  0
 28 29  1  6
 29 30  1  0
 30 31  1  0
 31 32  1  1
 32 33  1  0
 33 34  2  0
 33 35  2  0
 33 36  1  0
 31 37  1  0
 37 38  2  0
 37 39  1  0
  9  4  1  0
 23 10  2  0
 24 12  1  0
 24 17  2  0
 31 26  1  0
 39 28  1  0
M  END
$$$$
2223
     RDKit          2D

 22 23  0  0  0  0  0  0  0  0999 V2000
    0.7500   -9.0933    0.0000 C   0  0  0  0  0  0  0  0  0  0  0  0
    1.5000   -7.7942    0.0000 N   0  0  0  0  0  0  0  0  0  0  0  0
    0.7500   -6.4952    0.0000 C   0  0  0  0  0  0  0  0  0  0  0  0
    1.5000   -5.1962    0.0000 C   0  0  0  0  0  0  0  0  0  0  0  0
    0.7500   -3.8971    0.0000 C   0  0  0  0  0  0  0  0  0  0  0  0
    1.5000   -2.5981    0.0000 O   0  0  0  0  0  0  0  0  0  0  0  0
    0.7500   -1.2990    0.0000 C   0  0  0  0  0  0  0  0  0  0  0  0
    1.5000    0.0000    0.0000 C   0  0  0  0  0  0  0  0  0  0  0  0
    0.7500    1.2990    0.0000 C   0  0  0  0  0  0  0  0  0  0  0  0
   -0.7500    1.2990    0.0000 C   0  0  0  0  0  0  0  0  0  0  0  0
   -1.5000    0.0000    0.0000 C   0  0  0  0  0  0  0  0  0  0  0  0
   -0.7500   -1.2990    0.0000 C   0  0  0  0  0  0  0  0  0  0  0  0
   -1.5000    2.5981    0.0000 C   0  0  0  0  0  0  0  0  0  0  0  0
   -2.2500    3.8971    0.0000 F   0  0  0  0  0  0  0  0  0  0  0  0
   -0.2010    3.3481    0.0000 F   0  0  0  0  0  0  0  0  0  0  0  0
   -2.7990    1.8481    0.0000 F   0  0  0  0  0  0  0  0  0  0  0  0
   -0.7500   -3.8971    0.0000 C   0  0  0  0  0  0  0  0  0  0  0  0
   -1.5000   -2.5981    0.0000 C   0  0  0  0  0  0  0  0  0  0  0  0
   -3.0000   -2.5981    0.0000 C   0  0  0  0  0  0  0  0  0  0  0  0
   -3.7500   -3.8971    0.0000 C   0  0  0  0  0  0  0  0  0  0  0  0
   -3.0000   -5.1962    0.0000 C   0  0  0  0  0  0  0  0  0  0  0  0
   -1.5000   -5.1962    0.0000 C   0  0  0  0  0  0  0  0  0  0  0  0
  1  2  1  0
  2  3  1  0
  3  4  1  0
  4  5  1  0
  5  6  1  0
  6  7  1  0
  7  8  2  0
  8  9  1  0
  9 10  2  0
 10 11  1  0
 11 12  2  0
 10 13  1  0
 13 14  1  0
 13 15  1  0
 13 16  1  0
  5 17  1  0
 17 18  2  0
 18 19  1  0
 19 20  2  0
 20 21  1  0
 21 22  2  0
 12  7  1  0
 22 17  1  0
M  END
$$$$
2262
     RDKit          2D

 20 22  0  0  0  0  0  0  0  0999 V2000
    8.1129   -3.6696    0.0000 C   0  0  0  0  0  0  0  0  0  0  0  0
    6.6505   -4.0034    0.0000 N   0  0  0  0  0  0  0  0  0  0  0  0
    5.6303   -2.9038    0.0000 C   0  0  0  0  0  0  0  0  0  0  0  0
    4.1679   -3.2376    0.0000 C   0  0  0  0  0  0  0  0  0  0  0  0
    3.1476   -2.1380    0.0000 C   0  0  0  0  0  0  0  0  0  0  0  0
    1.6852   -2.4718    0.0000 C   0  0  0  0  0  0  0  0  0  0  0  0
    0.7500   -1.2990    0.0000 C   0  0  0  0  0  0  0  0  0  0  0  0
    1.5000    0.0000    0.0000 C   0  0  0  0  0  0  0  0  0  0  0  0
    0.7500    1.2990    0.0000 C   0  0  0  0  0  0  0  0  0  0  0  0
   -0.7500    1.2990    0.0000 C   0  0  0  0  0  0  0  0  0  0  0  0
   -1.5000    0.0000    0.0000 C   0  0  0  0  0  0  0  0  0  0  0  0
   -0.7500   -1.2990    0.0000 C   0  0  0  0  0  0  0  0  0  0  0  0
   -1.6852   -2.4718    0.0000 C   0  0  0  0  0  0  0  0  0  0  0  0
   -1.3515   -3.9342    0.0000 C   0  0  0  0  0  0  0  0  0  0  0  0
   -0.0000   -4.5850    0.0000 C   0  0  0  0  0  0  0  0  0  0  0  0
   -0.1121   -6.0808    0.0000 C   0  0  0  0  0  0  0  0  0  0  0  0
    1.1273   -6.9258    0.0000 C   0  0  0  0  0  0  0  0  0  0  0  0
    2.4787   -6.2750    0.0000 C   0  0  0  0  0  0  0  0  0  0  0  0
    2.5908   -4.7792    0.0000 C   0  0  0  0  0  0  0  0  0  0  0  0
    1.3515   -3.9342    0.0000 C   0  0  0  0  0  0  0  0  0  0  0  0
  1  2  1  0
  2  3  1  0
  3  4  1  0
  4  5  1  0
  5  6  2  0
  6  7  1  0
  7  8  2  0
  8  9  1  0
  9 10  2  0
 10 11  1  0
 11 12  2  0
 12 13  1  0
 13 14  1  0
 14 15  1  0
 15 16  2  0
 16 17  1  0
 17 18  2  0
 18 19  1  0
 19 20  2  0
 20  6  1  0
 12  7  1  0
 20 15  1  0
M  END
$$$$
27713
     RDKit          2D

 21 24  0  0  0  0  0  0  0  0999 V2000
   -7.5000    0.0000    0.0000 C   0  0  0  0  0  0  0  0  0  0  0  0
   -6.0000    0.0000    0.0000 N   0  0  0  0  0  0  0  0  0  0  0  0
   -5.2500   -1.2990    0.0000 C   0  0  0  0  0  0  0  0  0  0  0  0
   -3.7500   -1.2990    0.0000 C   0  0  0  0  0  0  0  0  0  0  0  0
   -3.0000   -2.5981    0.0000 C   0  0  0  0  0  0  0  0  0  0  0  0
   -1.5000   -2.5981    0.0000 C   0  0  0  0  0  0  0  0  0  0  0  0
   -0.6782   -2.6485    0.0000 C   0  0  0  0  0  0  0  0  0  0  0  0
    0.6782   -2.6485    0.0000 C   0  0  0  0  0  0  0  0  0  0  0  0
    1.5000   -2.5981    0.0000 C   0  0  0  0  0  0  0  0  0  0  0  0
    0.7500   -3.8971    0.0000 C   0  0  0  0  0  0  0  0  0  0  0  0
    1.5000   -5.1962    0.0000 C   0  0  0  0  0  0  0  0  0  0  0  0
    0.7500   -6.4952    0.0000 C   0  0  0  0  0  0  0  0  0  0  0  0
   -0.7500   -6.4952    0.0000 C   0  0  0  0  0  0  0  0  0  0  0  0
   -1.5000   -5.1962    0.0000 C   0  0  0  0  0  0  0  0  0  0  0  0
   -0.7500   -3.8971    0.0000 C   0  0  0  0  0  0  0  0  0  0  0  0
    0.7500   -1.2990    0.0000 C   0  0  0  0  0  0  0  0  0  0  0  0
    1.5000    0.0000    0.0000 C   0  0  0  0  0  0  0  0  0  0  0  0
    0.7500    1.2990    0.0000 C   0  0  0  0  0  0  0  0  0  0  0  0
   -0.7500    1.2990    0.0000 C   0  0  0  0  0  0  0  0  0  0  0  0
   -1.5000    0.0000    0.0000 C   0  0  0  0  0  0  0  0  0  0  0  0
   -0.7500   -1.2990    0.0000 C   0  0  0  0  0  0  0  0  0  0  0  0
  1  2  1  0
  2  3  1  0
  3  4  1  0
  4  5  1  0
  5  6  1  0
  6  7  1  0
  7  8  1  0
  8  9  1  0
  9 10  1  0
 10 11  2  0
 11 12  1  0
 12 13  2  0
 13 14  1  0
 14 15  2  0
  9 16  1  0
 16 17  2  0
 17 18  1  0
 18 19  2  0
 19 20  1  0
 20 21  2  0
 15  6  1  0
 21  6  1  0
 15 10  1  0
 21 16  1  0
M  END
$$$$
28112
     RDKit          2D

 20 22  0  0  0  0  0  0  0  0999 V2000
    8.1129   -3.6696    0.0000 C   0  0  0  0  0  0  0  0  0  0  0  0
    6.6505   -4.0034    0.0000 N   0  0  0  0  0  0  0  0  0  0  0  0
    5.6303   -2.9038    0.0000 C   0  0  0  0  0  0  0  0  0  0  0  0
    4.1679   -3.2376    0.0000 C   0  0  0  0  0  0  0  0  0  0  0  0
    3.1476   -2.1380    0.0000 C   0  0  0  0  0  0  0  0  0  0  0  0
    1.6852   -2.4718    0.0000 C   0  0  0  0  0  0  0  0  0  0  0  0
    0.7500   -1.2990    0.0000 C   0  0  0  0  0  0  0  0  0  0  0  0
    1.5000    0.0000    0.0000 C   0  0  0  0  0  0  0  0  0  0  0  0
    0.7500    1.2990    0.0000 C   0  0  0  0  0  0  0  0  0  0  0  0
   -0.7500    1.2990    0.0000 C   0  0  0  0  0  0  0  0  0  0  0  0
   -1.5000    0.0000    0.0000 C   0  0  0  0  0  0  0  0  0  0  0  0
   -0.7500   -1.2990    0.0000 C   0  0  0  0  0  0  0  0  0  0  0  0
   -1.6852   -2.4718    0.0000 C   0  0  0  0  0  0  0  0  0  0  0  0
   -1.3515   -3.9342    0.0000 C   0  0  0  0  0  0  0  0  0  0  0  0
   -0.0000   -4.5850    0.0000 C   0  0  0  0  0  0  0  0  0  0  0  0
   -0.1121   -6.0808    0.0000 C   0  0  0  0  0  0  0  0  0  0  0  0
    1.1273   -6.9258    0.0000 C   0  0  0  0  0  0  0  0  0  0  0  0
    2.4787   -6.2750    0.0000 C   0  0  0  0  0  0  0  0  0  0  0  0
    2.5908   -4.7792    0.0000 C   0  0  0  0  0  0  0  0  0  0  0  0
    1.3515   -3.9342    0.0000 C   0  0  0  0  0  0  0  0  0  0  0  0
  1  2  1  0
  2  3  1  0
  3  4  1  0
  4  5  1  0
  5  6  1  0
  6  7  1  0
  7  8  2  0
  8  9  1  0
  9 10  2  0
 10 11  1  0
 11 12  2  0
 12 13  1  0
 13 14  2  0
 14 15  1  0
 15 16  2  0
 16 17  1  0
 17 18  2  0
 18 19  1  0
 19 20  2  0
 20  6  1  0
 12  7  1  0
 20 15  1  0
M  END
$$$$
6243
     RDKit          2D

 20 22  0  0  0  0  0  0  0  0999 V2000
    8.1129   -3.6696    0.0000 C   0  0  0  0  0  0  0  0  0  0  0  0
    6.6505   -4.0034    0.0000 N   0  0  0  0  0  0  0  0  0  0  0  0
    5.6303   -2.9038    0.0000 C   0  0  0  0  0  0  0  0  0  0  0  0
    4.1679   -3.2376    0.0000 C   0  0  0  0  0  0  0  0  0  0  0  0
    3.1476   -2.1380    0.0000 C   0  0  0  0  0  0  0  0  0  0  0  0
    1.6852   -2.4718    0.0000 N   0  0  0  0  0  0  0  0  0  0  0  0
    0.7500   -1.2990    0.0000 C   0  0  0  0  0  0  0  0  0  0  0  0
    1.5000    0.0000    0.0000 C   0  0  0  0  0  0  0  0  0  0  0  0
    0.7500    1.2990    0.0000 C   0  0  0  0  0  0  0  0  0  0  0  0
   -0.7500    1.2990    0.0000 C   0  0  0  0  0  0  0  0  0  0  0  0
   -1.5000    0.0000    0.0000 C   0  0  0  0  0  0  0  0  0  0  0  0
   -0.7500   -1.2990    0.0000 C   0  0  0  0  0  0  0  0  0  0  0  0
   -1.6852   -2.4718    0.0000 C   0  0  0  0  0  0  0  0  0  0  0  0
   -1.3515   -3.9342    0.0000 C   0  0  0  0  0  0  0  0  0  0  0  0
   -0.0000   -4.5850    0.0000 C   0  0  0  0  0  0  0  0  0  0  0  0
   -0.1121   -6.0808    0.0000 C   0  0  0  0  0  0  0  0  0  0  0  0
    1.1273   -6.9258    0.0000 C   0  0  0  0  0  0  0  0  0  0  0  0
    2.4787   -6.2750    0.0000 C   0  0  0  0  0  0  0  0  0  0  0  0
    2.5908   -4.7792    0.0000 C   0  0  0  0  0  0  0  0  0  0  0  0
    1.3515   -3.9342    0.0000 C   0  0  0  0  0  0  0  0  0  0  0  0
  1  2  1  0
  2  3  1  0
  3  4  1  0
  4  5  1  0
  5  6  1  0
  6  7  1  0
  7  8  2  0
  8  9  1  0
  9 10  2  0
 10 11  1  0
 11 12  2  0
 12 13  1  0
 13 14  1  0
 14 15  1  0
 15 16  2  0
 16 17  1  0
 17 18  2  0
 18 19  1  0
 19 20  2  0
 20  6  1  0
 12  7  1  0
 20 15  1  0
M  END
$$$$
27342
     RDKit          2D

 19 20  0  0  0  0  0  0  0  0999 V2000
    7.5000   -5.1962    0.0000 C   0  0  0  0  0  0  0  0  0  0  0  0
    6.0000   -5.1962    0.0000 N   0  0  0  0  0  0  0  0  0  0  0  0
    5.2500   -3.8971    0.0000 C   0  0  0  0  0  0  0  0  0  0  0  0
    3.7500   -3.8971    0.0000 C   0  0  0  0  0  0  0  0  0  0  0  0
    3.0000   -2.5981    0.0000 C   0  0  0  0  0  0  0  0  0  0  0  0
    1.5000   -2.5981    0.0000 O   0  0  0  0  0  0  0  0  0  0  0  0
    0.7500   -1.2990    0.0000 C   0  0  0  0  0  0  0  0  0  0  0  0
    1.5000    0.0000    0.0000 C   0  0  0  0  0  0  0  0  0  0  0  0
    0.7500    1.2990    0.0000 C   0  0  0  0  0  0  0  0  0  0  0  0
   -0.7500    1.2990    0.0000 C   0  0  0  0  0  0  0  0  0  0  0  0
   -1.5000    0.0000    0.0000 C   0  0  0  0  0  0  0  0  0  0  0  0
   -0.7500   -1.2990    0.0000 C   0  0  0  0  0  0  0  0  0  0  0  0
   -1.5000   -2.5981    0.0000 C   0  0  0  0  0  0  0  0  0  0  0  0
    3.7500   -1.2990    0.0000 C   0  0  0  0  0  0  0  0  0  0  0  0
    5.2500   -1.2990    0.0000 C   0  0  0  0  0  0  0  0  0  0  0  0
    6.0000   -0.0000    0.0000 C   0  0  0  0  0  0  0  0  0  0  0  0
    5.2500    1.2990    0.0000 C   0  0  0  0  0  0  0  0  0  0  0  0
    3.7500    1.2990    0.0000 C   0  0  0  0  0  0  0  0  0  0  0  0
    3.0000   -0.0000    0.0000 C   0  0  0  0  0  0  0  0  0  0  0  0
  1  2  1  0
  2  3  1  0
  3  4  1  0
  5  4  1  1
  5  6  1  0
  6  7  1  0
  7  8  2  0
  8  9  1  0
  9 10  2  0
 10 11  1  0
 11 12  2  0
 12 13  1  0
  5 14  1  0
 14 15  2  0
 15 16  1  0
 16 17  2  0
 17 18  1  0
 18 19  2  0
 12  7  1  0
 19 14  1  0
M  END
$$$$
192908
     RDKit          2D

 21 23  0  0  0  0  0  0  0  0999 V2000
   -8.2500   -6.4952    0.0000 C   0  0  0  0  0  0  0  0  0  0  0  0
   -7.5000   -5.1962    0.0000 N   0  0  0  0  0  0  0  0  0  0  0  0
   -6.0000   -5.1962    0.0000 C   0  0  0  0  0  0  0  0  0  0  0  0
   -5.2500   -3.8971    0.0000 C   0  0  0  0  0  0  0  0  0  0  0  0
   -3.7500   -3.8971    0.0000 C   0  0  0  0  0  0  0  0  0  0  0  0
   -3.0000   -2.5981    0.0000 O   0  0  0  0  0  0  0  0  0  0  0  0
   -1.5000   -2.5981    0.0000 C   0  0  0  0  0  0  0  0  0  0  0  0
   -0.7500   -3.8971    0.0000 C   0  0  0  0  0  0  0  0  0  0  0  0
    0.7500   -3.8971    0.0000 C   0  0  0  0  0  0  0  0  0  0  0  0
    1.5000   -2.5981    0.0000 C   0  0  0  0  0  0  0  0  0  0  0  0
    0.7500   -1.2990    0.0000 C   0  0  0  0  0  0  0  0  0  0  0  0
    1.5000    0.0000    0.0000 C   0  0  0  0  0  0  0  0  0  0  0  0
    0.7500    1.2990    0.0000 C   0  0  0  0  0  0  0  0  0  0  0  0
   -0.7500    1.2990    0.0000 C   0  0  0  0  0  0  0  0  0  0  0  0
   -1.5000    0.0000    0.0000 C   0  0  0  0  0  0  0  0  0  0  0  0
   -0.7500   -1.2990    0.0000 C   0  0  0  0  0  0  0  0  0  0  0  0
   -3.0000   -5.1962    0.0000 C   0  0  0  0  0  0  0  0  0  0  0  0
   -1.5082   -5.3529    0.0000 C   0  0  0  0  0  0  0  0  0  0  0  0
   -1.1963   -6.8202    0.0000 C   0  0  0  0  0  0  0  0  0  0  0  0
   -2.4954   -7.5702    0.0000 C   0  0  0  0  0  0  0  0  0  0  0  0
   -3.6101   -6.5665    0.0000 S   0  0  0  0  0  0  0  0  0  0  0  0
  1  2  1  0
  2  3  1  0
  3  4  1  0
  5  4  1  6
  5  6  1  0
  6  7  1  0
  7  8  2  0
  8  9  1  0
  9 10  2  0
 10 11  1  0
 11 12  2  0
 12 13  1  0
 13 14  2  0
 14 15  1  0
 15 16  2  0
  5 17  1  0
 17 18  2  0
 18 19  1  0
 19 20  2  0
 20 21  1  0
 16  7  1  0
 16 11  1  0
 21 17  1  0
M  END
$$$$
219334
     RDKit          2D

 12 12  0  0  0  0  0  0  0  0999 V2000
    6.0000   -2.5981    0.0000 C   0  0  0  0  0  0  0  0  0  0  0  0
    5.2500   -1.2990    0.0000 N   0  0  0  0  0  0  0  0  0  0  0  0
    3.7500   -1.2990    0.0000 C   0  0  0  0  0  0  0  0  0  0  0  0
    3.0000    0.0000    0.0000 C   0  0  0  0  0  0  0  0  0  0  0  0
    3.7500    1.2990    0.0000 O   0  0  0  0  0  0  0  0  0  0  0  0
    1.5000    0.0000    0.0000 C   0  0  0  0  0  0  0  0  0  0  0  0
    0.7500   -1.2990    0.0000 C   0  0  0  0  0  0  0  0  0  0  0  0
   -0.7500   -1.2990    0.0000 C   0  0  0  0  0  0  0  0  0  0  0  0
   -1.5000    0.0000    0.0000 C   0  0  0  0  0  0  0  0  0  0  0  0
   -0.7500    1.2990    0.0000 C   0  0  0  0  0  0  0  0  0  0  0  0
   -1.5000    2.5981    0.0000 O   0  0  0  0  0  0  0  0  0  0  0  0
    0.7500    1.2990    0.0000 C   0  0  0  0  0  0  0  0  0  0  0  0
  1  2  1  0
  2  3  1  0
  3  4  1  0
  4  5  1  1
  4  6  1  0
  6  7  2  0
  7  8  1  0
  8  9  2  0
  9 10  1  0
 10 11  1  0
 10 12  2  0
 12  6  1  0
M  END
$$$$
266225
     RDKit          2D

 16 16  0  0  0  0  0  0  0  0999 V2000
    6.0000   -2.5981    0.0000 C   0  0  0  0  0  0  0  0  0  0  0  0
    5.2500   -1.2990    0.0000 N   0  0  0  0  0  0  0  0  0  0  0  0
    3.7500   -1.2990    0.0000 N   0  0  0  0  0  0  0  0  0  0  0  0
    3.0000    0.0000    0.0000 C   0  0  0  0  0  0  0  0  0  0  0  0
    1.5000    0.0000    0.0000 C   0  0  0  0  0  0  0  0  0  0  0  0
    0.7500   -1.2990    0.0000 C   0  0  0  0  0  0  0  0  0  0  0  0
   -0.7500   -1.2990    0.0000 C   0  0  0  0  0  0  0  0  0  0  0  0
   -1.5000    0.0000    0.0000 C   0  0  0  0  0  0  0  0  0  0  0  0
   -0.7500    1.2990    0.0000 C   0  0  0  0  0  0  0  0  0  0  0  0
    0.7500    1.2990    0.0000 C   0  0  0  0  0  0  0  0  0  0  0  0
   -3.0000    0.0000    0.0000 C   0  0  0  0  0  0  0  0  0  0  0  0
   -3.7500   -1.2990    0.0000 O   0  0  0  0  0  0  0  0  0  0  0  0
   -3.7500    1.2990    0.0000 N   0  0  0  0  0  0  0  0  0  0  0  0
   -5.2500    1.2990    0.0000 C   0  0  0  0  0  0  0  0  0  0  0  0
   -6.0000    2.5981    0.0000 C   0  0  0  0  0  0  0  0  0  0  0  0
   -6.0000    0.0000    0.0000 C   0  0  0  0  0  0  0  0  0  0  0  0
  1  2  1  0
  2  3  1  0
  3  4  1  0
  4  5  1  0
  5  6  2  0
  6  7  1  0
  7  8  2  0
  8  9  1  0
  9 10  2  0
  8 11  1  0
 11 12  2  0
 11 13  1  0
 13 14  1  0
 14 15  1  0
 14 16  1  0
 10  5  1  0
M  END
$$$$
27111
     RDKit          2D

 20 21  0  0  0  0  0  0  0  0999 V2000
    3.7500   -3.8971    0.0000 C   0  0  0  0  0  0  0  0  0  0  0  0
    4.5000   -2.5981    0.0000 N   0  0  0  0  0  0  0  0  0  0  0  0
    3.7500   -1.2990    0.0000 S   0  0  0  0  0  0  0  0  0  0  0  0
    5.0490   -0.5490    0.0000 O   0  0  0  0  0  0  0  0  0  0  0  0
    2.4510   -2.0490    0.0000 O   0  0  0  0  0  0  0  0  0  0  0  0
    3.0000    0.0000    0.0000 C   0  0  0  0  0  0  0  0  0  0  0  0
    1.5000    0.0000    0.0000 C   0  0  0  0  0  0  0  0  0  0  0  0
    0.7500   -1.2990    0.0000 C   0  0  0  0  0  0  0  0  0  0  0  0
   -0.7500   -1.2990    0.0000 C   0  0  0  0  0  0  0  0  0  0  0  0
   -1.5000    0.0000    0.0000 C   0  0  0  0  0  0  0  0  0  0  0  0
   -2.9672    0.3119    0.0000 N   0  0  0  0  0  0  0  0  0  0  0  0
   -3.1240    1.8037    0.0000 C   0  0  0  0  0  0  0  0  0  0  0  0
   -1.7537    2.4138    0.0000 C   0  0  0  0  0  0  0  0  0  0  0  0
   -1.4418    3.8810    0.0000 C   0  0  0  0  0  0  0  0  0  0  0  0
   -2.5565    4.8847    0.0000 C   0  0  0  0  0  0  0  0  0  0  0  0
   -2.2447    6.3519    0.0000 N   0  0  0  0  0  0  0  0  0  0  0  0
   -3.3594    7.3556    0.0000 C   0  0  0  0  0  0  0  0  0  0  0  0
   -0.8181    6.8154    0.0000 C   0  0  0  0  0  0  0  0  0  0  0  0
   -0.7500    1.2990    0.0000 C   0  0  0  0  0  0  0  0  0  0  0  0
    0.7500    1.2990    0.0000 C   0  0  0  0  0  0  0  0  0  0  0  0
  1  2  1  0
  2  3  1  0
  3  4  2  0
  3  5  2  0
  3  6  1  0
  6  7  1  0
  7  8  2  0
  8  9  1  0
  9 10  2  0
 10 11  1  0
 11 12  1  0
 12 13  2  0
 13 14  1  0
 14 15  1  0
 15 16  1  0
 16 17  1  0
 16 18  1  0
 13 19  1  0
 19 20  2  0
 20  7  1  0
 19 10  1  0
M  END
$$$$
675101
     RDKit          2D

 28 28  0  0  0  0  0  0  0  0999 V2000
    3.7500   -3.8971    0.0000 C   0  0  0  0  0  0  0  0  0  0  0  0
    4.5000   -2.5981    0.0000 N   0  0  0  0  0  0  0  0  0  0  0  0
    3.7500   -1.2990    0.0000 S   0  0  0  0  0  0  0  0  0  0  0  0
    5.0490   -0.5490    0.0000 O   0  0  0  0  0  0  0  0  0  0  0  0
    2.4510   -2.0490    0.0000 O   0  0  0  0  0  0  0  0  0  0  0  0
    3.0000    0.0000    0.0000 C   0  0  0  0  0  0  0  0  0  0  0  0
    1.5000    0.0000    0.0000 C   0  0  0  0  0  0  0  0  0  0  0  0
    0.7500   -1.2990    0.0000 C   0  0  0  0  0  0  0  0  0  0  0  0
   -0.7500   -1.2990    0.0000 C   0  0  0  0  0  0  0  0  0  0  0  0
   -1.5000    0.0000    0.0000 C   0  0  0  0  0  0  0  0  0  0  0  0
   -2.9672    0.3119    0.0000 N   0  0  0  0  0  0  0  0  0  0  0  0
   -3.1240    1.8037    0.0000 C   0  0  0  0  0  0  0  0  0  0  0  0
   -1.7537    2.4138    0.0000 C   0  0  0  0  0  0  0  0  0  0  0  0
   -1.4418    3.8810    0.0000 C   0  0  0  0  0  0  0  0  0  0  0  0
   -2.5565    4.8847    0.0000 C   0  0  0  0  0  0  0  0  0  0  0  0
   -2.2447    6.3519    0.0000 N   0  0  0  0  0  0  0  0  0  0  0  0
   -3.3594    7.3556    0.0000 C   0  0  0  0  0  0  0  0  0  0  0  0
   -0.8181    6.8154    0.0000 C   0  0  0  0  0  0  0  0  0  0  0  0
   -0.7500    1.2990    0.0000 C   0  0  0  0  0  0  0  0  0  0  0  0
    0.7500    1.2990    0.0000 C   0  0  0  0  0  0  0  0  0  0  0  0
    6.0490    0.0000    0.0000 O   0  0  0  0  0  0  0  0  0  0  0  0
    7.3481    0.7500    0.0000 C   0  0  0  0  0  0  0  0  0  0  0  0
    7.3481    2.2500    0.0000 O   0  0  0  0  0  0  0  0  0  0  0  0
    8.6471    0.0000    0.0000 C   0  0  0  0  0  0  0  0  0  0  0  0
    9.9462    0.7500    0.0000 C   0  0  0  0  0  0  0  0  0  0  0  0
   11.2452   -0.0000    0.0000 C   0  0  0  0  0  0  0  0  0  0  0  0
   11.2452   -1.5000    0.0000 O   0  0  0  0  0  0  0  0  0  0  0  0
   12.5442    0.7500    0.0000 O   0  0  0  0  0  0  0  0  0  0  0  0
  1  2  1  0
  2  3  1  0
  3  4  2  0
  3  5  2  0
  3  6  1  0
  6  7  1  0
  7  8  2  0
  8  9  1  0
  9 10  2  0
 10 11  1  0
 11 12  1  0
 12 13  2  0
 13 14  1  0
 14 15  1  0
 15 16  1  0
 16 17  1  0
 16 18  1  0
 13 19  1  0
 19 20  2  0
 21 22  1  0
 22 23  2  0
 22 24  1  0
 24 25  1  0
 25 26  1  0
 26 27  2  0
 26 28  1  0
 20  7  1  0
 19 10  1  0
M  END
$$$$
250297
     RDKit          2D

 23 25  0  0  0  0  0  0  0  0999 V2000
    7.5000    0.0000    0.0000 C   0  0  0  0  0  0  0  0  0  0  0  0
    6.7500   -1.2990    0.0000 N   0  0  0  0  0  0  0  0  0  0  0  0
    5.2500   -1.2990    0.0000 S   0  0  0  0  0  0  0  0  0  0  0  0
    5.2500   -2.7990    0.0000 O   0  0  0  0  0  0  0  0  0  0  0  0
    5.2500    0.2010    0.0000 O   0  0  0  0  0  0  0  0  0  0  0  0
    3.7500   -1.2990    0.0000 C   0  0  0  0  0  0  0  0  0  0  0  0
    3.0000    0.0000    0.0000 C   0  0  0  0  0  0  0  0  0  0  0  0
    1.5000    0.0000    0.0000 C   0  0  0  0  0  0  0  0  0  0  0  0
    0.7500   -1.2990    0.0000 C   0  0  0  0  0  0  0  0  0  0  0  0
   -0.7500   -1.2990    0.0000 C   0  0  0  0  0  0  0  0  0  0  0  0
   -1.5000    0.0000    0.0000 C   0  0  0  0  0  0  0  0  0  0  0  0
   -2.9672    0.3119    0.0000 N   0  0  0  0  0  0  0  0  0  0  0  0
   -3.1240    1.8037    0.0000 C   0  0  0  0  0  0  0  0  0  0  0  0
   -1.7537    2.4138    0.0000 C   0  0  0  0  0  0  0  0  0  0  0  0
   -1.4418    3.8810    0.0000 C   0  0  0  0  0  0  0  0  0  0  0  0
   -0.0152    4.3445    0.0000 C   0  0  0  0  0  0  0  0  0  0  0  0
    0.2966    5.8117    0.0000 C   0  0  0  0  0  0  0  0  0  0  0  0
   -0.8181    6.8154    0.0000 N   0  0  0  0  0  0  0  0  0  0  0  0
   -0.5062    8.2826    0.0000 C   0  0  0  0  0  0  0  0  0  0  0  0
   -2.2447    6.3519    0.0000 C   0  0  0  0  0  0  0  0  0  0  0  0
   -2.5565    4.8847    0.0000 C   0  0  0  0  0  0  0  0  0  0  0  0
   -0.7500    1.2990    0.0000 C   0  0  0  0  0  0  0  0  0  0  0  0
    0.7500    1.2990    0.0000 C   0  0  0  0  0  0  0  0  0  0  0  0
  1  2  1  0
  2  3  1  0
  3  4  2  0
  3  5  2  0
  3  6  1  0
  6  7  1  0
  7  8  1  0
  8  9  2  0
  9 10  1  0
 10 11  2  0
 11 12  1  0
 12 13  1  0
 13 14  2  0
 14 15  1  0
 15 16  1  0
 16 17  1  0
 17 18  1  0
 18 19  1  0
 18 20  1  0
 20 21  1  0
 14 22  1  0
 22 23  2  0
 23  8  1  0
 22 11  1  0
 21 15  1  0
M  END
$$$$
675152
     RDKit          2D

 11 11  0  0  0  0  0  0  0  0999 V2000
    3.7500   -3.8971    0.0000 C   0  0  0  0  0  0  0  0  0  0  0  0
    3.0000   -2.5981    0.0000 N   0  0  0  0  0  0  0  0  0  0  0  0
    3.7500   -1.2990    0.0000 C   0  0  0  0  0  0  0  0  0  0  0  0
    5.2500   -1.2990    0.0000 C   0  0  0  0  0  0  0  0  0  0  0  0
    3.0000    0.0000    0.0000 C   0  0  0  0  0  0  0  0  0  0  0  0
    1.5000    0.0000    0.0000 C   0  0  0  0  0  0  0  0  0  0  0  0
    0.7500   -1.2990    0.0000 C   0  0  0  0  0  0  0  0  0  0  0  0
   -0.7500   -1.2990    0.0000 C   0  0  0  0  0  0  0  0  0  0  0  0
   -1.5000    0.0000    0.0000 C   0  0  0  0  0  0  0  0  0  0  0  0
   -0.7500    1.2990    0.0000 C   0  0  0  0  0  0  0  0  0  0  0  0
    0.7500    1.2990    0.0000 C   0  0  0  0  0  0  0  0  0  0  0  0
  1  2  1  0
  2  3  1  0
  3  4  1  6
  3  5  1  0
  5  6  1  0
  6  7  2  0
  7  8  1  0
  8  9  2  0
  9 10  1  0
 10 11  2  0
 11  6  1  0
M  END
$$$$
454076
     RDKit          2D

 12 12  0  0  0  0  0  0  0  0999 V2000
    3.7500   -3.8971    0.0000 C   0  0  0  0  0  0  0  0  0  0  0  0
    3.0000   -2.5981    0.0000 N   0  0  0  0  0  0  0  0  0  0  0  0
    3.7500   -1.2990    0.0000 C   0  0  0  0  0  0  0  0  0  0  0  0
    5.2500   -1.2990    0.0000 C   0  0  0  0  0  0  0  0  0  0  0  0
    3.0000    0.0000    0.0000 C   0  0  0  0  0  0  0  0  0  0  0  0
    3.7500    1.2990    0.0000 O   0  0  0  0  0  0  0  0  0  0  0  0
    1.5000    0.0000    0.0000 C   0  0  0  0  0  0  0  0  0  0  0  0
    0.7500   -1.2990    0.0000 C   0  0  0  0  0  0  0  0  0  0  0  0
   -0.7500   -1.2990    0.0000 C   0  0  0  0  0  0  0  0  0  0  0  0
   -1.5000    0.0000    0.0000 C   0  0  0  0  0  0  0  0  0  0  0  0
   -0.7500    1.2990    0.0000 C   0  0  0  0  0  0  0  0  0  0  0  0
    0.7500    1.2990    0.0000 C   0  0  0  0  0  0  0  0  0  0  0  0
  1  2  1  0
  2  3  1  0
  3  4  1  6
  3  5  1  0
  5  6  1  6
  5  7  1  0
  7  8  2  0
  8  9  1  0
  9 10  2  0
 10 11  1  0
 11 12  2  0
 12  7  1  0
M  END
$$$$
674851
     RDKit          2D

 17 16  0  0  0  0  0  0  0  0999 V2000
    3.7500   -3.8971    0.0000 C   0  0  0  0  0  0  0  0  0  0  0  0
    3.0000   -2.5981    0.0000 N   0  0  0  0  0  0  0  0  0  0  0  0
    3.7500   -1.2990    0.0000 C   0  0  0  0  0  0  0  0  0  0  0  0
    5.2500   -1.2990    0.0000 C   0  0  0  0  0  0  0  0  0  0  0  0
    3.0000    0.0000    0.0000 C   0  0  0  0  0  0  0  0  0  0  0  0
    3.7500    1.2990    0.0000 O   0  0  0  0  0  0  0  0  0  0  0  0
    1.5000    0.0000    0.0000 C   0  0  0  0  0  0  0  0  0  0  0  0
    0.7500   -1.2990    0.0000 C   0  0  0  0  0  0  0  0  0  0  0  0
   -0.7500   -1.2990    0.0000 C   0  0  0  0  0  0  0  0  0  0  0  0
   -1.5000    0.0000    0.0000 C   0  0  0  0  0  0  0  0  0  0  0  0
   -0.7500    1.2990    0.0000 C   0  0  0  0  0  0  0  0  0  0  0  0
    0.7500    1.2990    0.0000 C   0  0  0  0  0  0  0  0  0  0  0  0
    0.0000    2.8481    0.0000 O   0  0  0  0  0  0  0  0  0  0  0  0
    1.2990    3.5981    0.0000 S   0  0  0  0  0  0  0  0  0  0  0  0
    2.0490    2.2990    0.0000 O   0  0  0  0  0  0  0  0  0  0  0  0
    0.5490    4.8971    0.0000 O   0  0  0  0  0  0  0  0  0  0  0  0
    2.5981    4.3481    0.0000 O   0  0  0  0  0  0  0  0  0  0  0  0
  1  2  1  0
  2  3  1  0
  3  4  1  6
  3  5  1  0
  5  6  1  6
  5  7  1  0
  7  8  2  0
  8  9  1  0
  9 10  2  0
 10 11  1  0
 11 12  2  0
 13 14  1  0
 14 15  2  0
 14 16  2  0
 14 17  1  0
 12  7  1  0
M  END
$$$$
250328
     RDKit          2D

 18 20  0  0  0  0  0  0  0  0999 V2000
    3.7500   -1.2990    0.0000 C   0  0  0  0  0  0  0  0  0  0  0  0
    3.0000    0.0000    0.0000 N   0  0  0  0  0  0  0  0  0  0  0  0
    1.5000    0.0000    0.0000 C   0  0  0  0  0  0  0  0  0  0  0  0
    0.7500   -1.2990    0.0000 C   0  0  0  0  0  0  0  0  0  0  0  0
   -0.7500   -1.2990    0.0000 C   0  0  0  0  0  0  0  0  0  0  0  0
   -1.5000    0.0000    0.0000 C   0  0  0  0  0  0  0  0  0  0  0  0
   -2.9672    0.3119    0.0000 N   0  0  0  0  0  0  0  0  0  0  0  0
   -3.1240    1.8037    0.0000 C   0  0  0  0  0  0  0  0  0  0  0  0
   -4.3375    2.6853    0.0000 C   0  0  0  0  0  0  0  0  0  0  0  0
   -4.1807    4.1771    0.0000 C   0  0  0  0  0  0  0  0  0  0  0  0
   -2.8104    4.7872    0.0000 C   0  0  0  0  0  0  0  0  0  0  0  0
   -1.5969    3.9055    0.0000 C   0  0  0  0  0  0  0  0  0  0  0  0
   -1.7537    2.4138    0.0000 C   0  0  0  0  0  0  0  0  0  0  0  0
   -0.7500    1.2990    0.0000 C   0  0  0  0  0  0  0  0  0  0  0  0
    0.7500    1.2990    0.0000 C   0  0  0  0  0  0  0  0  0  0  0  0
   -2.6536    6.2790    0.0000 C   0  0  0  0  0  0  0  0  0  0  0  0
   -3.8672    7.1607    0.0000 O   0  0  0  0  0  0  0  0  0  0  0  0
   -1.2833    6.8891    0.0000 N   0  0  0  0  0  0  0  0  0  0  0  0
  1  2  1  0
  3  2  1  6
  3  4  1  0
  4  5  1  0
  5  6  1  0
  6  7  1  0
  7  8  1  0
  8  9  2  0
  9 10  1  0
 10 11  2  0
 11 12  1  0
 12 13  2  0
 13 14  1  0
 14 15  1  0
 11 16  1  0
 16 17  2  0
 16 18  1  0
 15  3  1  0
 14  6  2  0
 13  8  1  0
M  END
$$$$
674322
     RDKit          2D

 26 27  0  0  0  0  0  0  0  0999 V2000
    3.7500   -1.2990    0.0000 C   0  0  0  0  0  0  0  0  0  0  0  0
    3.0000    0.0000    0.0000 N   0  0  0  0  0  0  0  0  0  0  0  0
    1.5000    0.0000    0.0000 C   0  0  0  0  0  0  0  0  0  0  0  0
    0.7500   -1.2990    0.0000 C   0  0  0  0  0  0  0  0  0  0  0  0
   -0.7500   -1.2990    0.0000 C   0  0  0  0  0  0  0  0  0  0  0  0
   -1.5000    0.0000    0.0000 C   0  0  0  0  0  0  0  0  0  0  0  0
   -2.9672    0.3119    0.0000 N   0  0  0  0  0  0  0  0  0  0  0  0
   -3.1240    1.8037    0.0000 C   0  0  0  0  0  0  0  0  0  0  0  0
   -4.3375    2.6853    0.0000 C   0  0  0  0  0  0  0  0  0  0  0  0
   -4.1807    4.1771    0.0000 C   0  0  0  0  0  0  0  0  0  0  0  0
   -2.8104    4.7872    0.0000 C   0  0  0  0  0  0  0  0  0  0  0  0
   -1.5969    3.9055    0.0000 C   0  0  0  0  0  0  0  0  0  0  0  0
   -1.7537    2.4138    0.0000 C   0  0  0  0  0  0  0  0  0  0  0  0
   -0.7500    1.2990    0.0000 C   0  0  0  0  0  0  0  0  0  0  0  0
    0.7500    1.2990    0.0000 C   0  0  0  0  0  0  0  0  0  0  0  0
   -2.6536    6.2790    0.0000 C   0  0  0  0  0  0  0  0  0  0  0  0
   -3.8672    7.1607    0.0000 O   0  0  0  0  0  0  0  0  0  0  0  0
   -1.2833    6.8891    0.0000 N   0  0  0  0  0  0  0  0  0  0  0  0
    4.7500    0.0000    0.0000 O   0  0  0  0  0  0  0  0  0  0  0  0
    6.0490    0.7500    0.0000 C   0  0  0  0  0  0  0  0  0  0  0  0
    6.0490    2.2500    0.0000 O   0  0  0  0  0  0  0  0  0  0  0  0
    7.3481    0.0000    0.0000 C   0  0  0  0  0  0  0  0  0  0  0  0
    8.6471    0.7500    0.0000 C   0  0  0  0  0  0  0  0  0  0  0  0
    9.9462   -0.0000    0.0000 C   0  0  0  0  0  0  0  0  0  0  0  0
    9.9462   -1.5000    0.0000 O   0  0  0  0  0  0  0  0  0  0  0  0
   11.2452    0.7500    0.0000 O   0  0  0  0  0  0  0  0  0  0  0  0
  1  2  1  0
  3  2  1  6
  3  4  1  0
  4  5  1  0
  5  6  1  0
  6  7  1  0
  7  8  1  0
  8  9  2  0
  9 10  1  0
 10 11  2  0
 11 12  1  0
 12 13  2  0
 13 14  1  0
 14 15  1  0
 11 16  1  0
 16 17  2  0
 16 18  1  0
 19 20  1  0
 20 21  2  0
 20 22  1  0
 22 23  1  0
 23 24  1  0
 24 25  2  0
 24 26  1  0
 15  3  1  0
 14  6  2  0
 13  8  1  0
M  END
$$$$
70140
     RDKit          2D

101110  0  0  0  0  0  0  0  0999 V2000
    6.2505   -8.2743    0.0000 C   0  0  0  0  0  0  0  0  0  0  0  0
    5.7684   -6.8539    0.0000 N   0  0  0  0  0  0  0  0  0  0  0  0
    4.2972   -6.5613    0.0000 C   0  0  0  0  0  0  0  0  0  0  0  0
    3.3082   -7.6891    0.0000 C   0  0  0  0  0  0  0  0  0  0  0  0
    3.7903   -9.1095    0.0000 C   0  0  0  0  0  0  0  0  0  0  0  0
    2.8013  -10.2372    0.0000 C   0  0  0  0  0  0  0  0  0  0  0  0
    5.2615   -9.4021    0.0000 C   0  0  0  0  0  0  0  0  0  0  0  0
    3.8150   -5.1409    0.0000 C   0  0  0  0  0  0  0  0  0  0  0  0
    2.4687   -5.0409    0.0000 O   0  0  0  0  0  0  0  0  0  0  0  0
    4.8040   -4.0131    0.0000 N   0  0  0  0  0  0  0  0  0  0  0  0
    4.3219   -2.5927    0.0000 C   0  0  0  0  0  0  0  0  0  0  0  0
    2.8347   -2.7885    0.0000 C   0  0  0  0  0  0  0  0  0  0  0  0
    2.5829   -4.1148    0.0000 O   0  0  0  0  0  0  0  0  0  0  0  0
    0.7500   -1.2990    0.0000 C   0  0  0  0  0  0  0  0  0  0  0  0
    1.5000    0.0000    0.0000 C   0  0  0  0  0  0  0  0  0  0  0  0
    0.7500    1.2990    0.0000 C   0  0  0  0  0  0  0  0  0  0  0  0
   -0.7500    1.2990    0.0000 C   0  0  0  0  0  0  0  0  0  0  0  0
   -0.3618    2.7479    0.0000 O   0  0  0  0  0  0  0  0  0  0  0  0
    0.5514    3.9380    0.0000 C   0  0  0  0  0  0  0  0  0  0  0  0
    1.8504    4.6880    0.0000 C   0  0  0  0  0  0  0  0  0  0  0  0
    3.3376    4.8837    0.0000 C   0  0  0  0  0  0  0  0  0  0  0  0
    2.1475    5.7969    0.0000 C   0  0  0  0  0  0  0  0  0  0  0  0
    1.3975    7.0959    0.0000 C   0  0  0  0  0  0  0  0  0  0  0  0
    1.2018    8.5831    0.0000 O   0  0  0  0  0  0  0  0  0  0  0  0
    1.5900   10.0320    0.0000 C   0  0  0  0  0  0  0  0  0  0  0  0
    2.5031   11.2220    0.0000 C   0  0  0  0  0  0  0  0  0  0  0  0
    3.8022   11.9720    0.0000 C   0  0  0  0  0  0  0  0  0  0  0  0
    5.2893   12.1678    0.0000 C   0  0  0  0  0  0  0  0  0  0  0  0
    4.3762   10.9778    0.0000 C   0  0  0  0  0  0  0  0  0  0  0  0
    3.0772   10.2278    0.0000 C   0  0  0  0  0  0  0  0  0  0  0  0
    3.5593    8.8074    0.0000 Cl  0  0  0  0  0  0  0  0  0  0  0  0
    6.7382   11.7796    0.0000 C   0  0  0  0  0  0  0  0  0  0  0  0
    7.4017   13.1249    0.0000 O   0  0  0  0  0  0  0  0  0  0  0  0
    7.9283   10.8664    0.0000 C   0  0  0  0  0  0  0  0  0  0  0  0
    8.6783    9.5674    0.0000 N   0  0  0  0  0  0  0  0  0  0  0  0
    8.8740    8.0802    0.0000 C   0  0  0  0  0  0  0  0  0  0  0  0
   10.3708    7.9821    0.0000 O   0  0  0  0  0  0  0  0  0  0  0  0
    8.4858    6.6313    0.0000 C   0  0  0  0  0  0  0  0  0  0  0  0
    7.5727    5.4413    0.0000 N   0  0  0  0  0  0  0  0  0  0  0  0
    6.2736    4.6913    0.0000 C   0  0  0  0  0  0  0  0  0  0  0  0
    7.0852    3.4298    0.0000 O   0  0  0  0  0  0  0  0  0  0  0  0
    4.7865    4.4955    0.0000 C   0  0  0  0  0  0  0  0  0  0  0  0
    5.9765    3.5824    0.0000 N   0  0  0  0  0  0  0  0  0  0  0  0
    6.7265    2.2833    0.0000 C   0  0  0  0  0  0  0  0  0  0  0  0
    8.1469    2.7655    0.0000 O   0  0  0  0  0  0  0  0  0  0  0  0
    6.9223    0.7962    0.0000 C   0  0  0  0  0  0  0  0  0  0  0  0
    8.4191    0.6981    0.0000 C   0  0  0  0  0  0  0  0  0  0  0  0
    9.0825   -0.6472    0.0000 C   0  0  0  0  0  0  0  0  0  0  0  0
    8.2492   -1.8944    0.0000 O   0  0  0  0  0  0  0  0  0  0  0  0
   10.5793   -0.7453    0.0000 N   0  0  0  0  0  0  0  0  0  0  0  0
    6.5341   -0.6527    0.0000 N   0  0  0  0  0  0  0  0  0  0  0  0
    5.6209   -1.8427    0.0000 C   0  0  0  0  0  0  0  0  0  0  0  0
    6.6099   -2.9705    0.0000 O   0  0  0  0  0  0  0  0  0  0  0  0
    9.8490    6.2294    0.0000 C   0  0  0  0  0  0  0  0  0  0  0  0
   10.6999    4.9583    0.0000 C   0  0  0  0  0  0  0  0  0  0  0  0
   12.1871    4.7625    0.0000 C   0  0  0  0  0  0  0  0  0  0  0  0
   13.1002    5.9525    0.0000 C   0  0  0  0  0  0  0  0  0  0  0  0
   14.5874    5.7567    0.0000 O   0  0  0  0  0  0  0  0  0  0  0  0
   12.5262    7.3383    0.0000 C   0  0  0  0  0  0  0  0  0  0  0  0
   11.3361    6.4252    0.0000 C   0  0  0  0  0  0  0  0  0  0  0  0
   13.1002    8.7241    0.0000 C   0  0  0  0  0  0  0  0  0  0  0  0
   14.4860    8.1501    0.0000 C   0  0  0  0  0  0  0  0  0  0  0  0
   14.6818    6.6629    0.0000 O   0  0  0  0  0  0  0  0  0  0  0  0
   15.6760    9.0633    0.0000 C   0  0  0  0  0  0  0  0  0  0  0  0
   15.4803   10.5504    0.0000 C   0  0  0  0  0  0  0  0  0  0  0  0
   16.6703   11.4636    0.0000 O   0  0  0  0  0  0  0  0  0  0  0  0
   14.0944   11.1244    0.0000 C   0  0  0  0  0  0  0  0  0  0  0  0
   12.9044   10.2113    0.0000 C   0  0  0  0  0  0  0  0  0  0  0  0
   11.9913   11.4013    0.0000 C   0  0  0  0  0  0  0  0  0  0  0  0
   10.6054   11.9754    0.0000 N   0  0  0  0  0  0  0  0  0  0  0  0
    9.1183   11.7796    0.0000 C   0  0  0  0  0  0  0  0  0  0  0  0
    8.5443   13.1654    0.0000 O   0  0  0  0  0  0  0  0  0  0  0  0
   12.9044   12.5914    0.0000 C   0  0  0  0  0  0  0  0  0  0  0  0
   14.3916   12.3956    0.0000 O   0  0  0  0  0  0  0  0  0  0  0  0
   12.3304   13.9772    0.0000 O   0  0  0  0  0  0  0  0  0  0  0  0
    0.1631    5.3868    0.0000 C   0  0  0  0  0  0  0  0  0  0  0  0
   -1.2857    5.7751    0.0000 O   0  0  0  0  0  0  0  0  0  0  0  0
   -1.6740    7.2240    0.0000 C   0  0  0  0  0  0  0  0  0  0  0  0
   -0.6133    8.2846    0.0000 O   0  0  0  0  0  0  0  0  0  0  0  0
   -1.0015    9.7335    0.0000 C   0  0  0  0  0  0  0  0  0  0  0  0
    0.0591   10.7942    0.0000 C   0  0  0  0  0  0  0  0  0  0  0  0
   -0.3291   12.2431    0.0000 O   0  0  0  0  0  0  0  0  0  0  0  0
   -2.4504   10.1217    0.0000 C   0  0  0  0  0  0  0  0  0  0  0  0
   -2.8387   11.5706    0.0000 O   0  0  0  0  0  0  0  0  0  0  0  0
   -3.5111    9.0611    0.0000 C   0  0  0  0  0  0  0  0  0  0  0  0
   -4.9600    9.4493    0.0000 O   0  0  0  0  0  0  0  0  0  0  0  0
   -3.1229    7.6122    0.0000 C   0  0  0  0  0  0  0  0  0  0  0  0
   -4.1835    6.5515    0.0000 O   0  0  0  0  0  0  0  0  0  0  0  0
   -5.6324    6.9398    0.0000 C   0  0  0  0  0  0  0  0  0  0  0  0
   -6.0206    8.3886    0.0000 C   0  0  0  0  0  0  0  0  0  0  0  0
   -7.4695    8.7769    0.0000 C   0  0  0  0  0  0  0  0  0  0  0  0
   -8.6983    9.6372    0.0000 C   0  0  0  0  0  0  0  0  0  0  0  0
   -6.8356   10.1363    0.0000 N   0  0  0  0  0  0  0  0  0  0  0  0
   -8.5302    7.7162    0.0000 C   0  0  0  0  0  0  0  0  0  0  0  0
   -9.9791    8.1044    0.0000 O   0  0  0  0  0  0  0  0  0  0  0  0
   -8.1420    6.2673    0.0000 C   0  0  0  0  0  0  0  0  0  0  0  0
   -9.2026    5.2067    0.0000 C   0  0  0  0  0  0  0  0  0  0  0  0
   -6.6931    5.8791    0.0000 O   0  0  0  0  0  0  0  0  0  0  0  0
   -1.5000    0.0000    0.0000 C   0  0  0  0  0  0  0  0  0  0  0  0
   -3.0000    0.0000    0.0000 Cl  0  0  0  0  0  0  0  0  0  0  0  0
   -0.7500   -1.2990    0.0000 C   0  0  0  0  0  0  0  0  0  0  0  0
  1  2  1  0
  2  3  1  0
  3  4  1  6
  4  5  1  0
  5  6  1  0
  5  7  1  0
  3  8  1  0
  8  9  2  0
  8 10  1  0
 11 10  1  6
 11 12  1  0
 12 13  1  6
 12 14  1  0
 14 15  2  0
 15 16  1  0
 16 17  2  0
 17 18  1  0
 18 19  1  0
 19 20  1  0
 20 21  2  0
 21 22  1  0
 22 23  2  0
 23 24  1  0
 24 25  1  0
 25 26  2  0
 26 27  1  0
 27 28  2  0
 28 29  1  0
 29 30  2  0
 30 31  1  0
 28 32  1  0
 32 33  1  1
 32 34  1  0
 34 35  1  0
 35 36  1  0
 36 37  2  0
 36 38  1  0
 38 39  1  0
 39 40  1  0
 40 41  2  0
 40 42  1  0
 42 43  1  6
 43 44  1  0
 44 45  2  0
 44 46  1  0
 46 47  1  6
 47 48  1  0
 48 49  2  0
 48 50  1  0
 46 51  1  0
 51 52  1  0
 52 53  2  0
 38 54  1  1
 54 55  2  0
 55 56  1  0
 56 57  2  0
 57 58  1  0
 57 59  1  0
 59 60  2  0
 59 61  1  0
 61 62  2  0
 62 63  1  0
 62 64  1  0
 64 65  2  0
 65 66  1  0
 65 67  1  0
 67 68  2  0
 68 69  1  0
 69 70  1  0
 70 71  1  0
 71 72  2  0
 69 73  1  6
 73 74  2  0
 73 75  1  0
 23 76  1  0
 76 77  1  0
 78 77  1  1
 78 79  1  0
 79 80  1  0
 80 81  1  1
 81 82  1  0
 80 83  1  0
 83 84  1  6
 83 85  1  0
 85 86  1  1
 85 87  1  0
 87 88  1  6
 89 88  1  6
 89 90  1  0
 90 91  1  0
 91 92  1  6
 91 93  1  0
 91 94  1  0
 94 95  1  1
 94 96  1  0
 96 97  1  1
 96 98  1  0
 17 99  1  0
 99100  1  0
 99101  2  0
 52 11  1  0
101 14  1  0
 76 19  2  0
 42 21  1  0
 30 25  1  0
 34 71  1  1
 60 54  1  0
 68 61  1  0
 87 78  1  0
 98 89  1  0
M  END
$$$$
53616
     RDKit          2D

 20 22  0  0  0  0  0  0  0  0999 V2000
   -3.7500   -3.8971    0.0000 C   0  0  0  0  0  0  0  0  0  0  0  0
   -3.0000   -2.5981    0.0000 N   0  0  0  0  0  0  0  0  0  0  0  0
   -1.5000   -2.5981    0.0000 C   0  0  0  0  0  0  0  0  0  0  0  0
   -0.7500   -3.8971    0.0000 C   0  0  0  0  0  0  0  0  0  0  0  0
    0.7500   -3.8971    0.0000 C   0  0  0  0  0  0  0  0  0  0  0  0
    1.5000   -2.5981    0.0000 C   0  0  0  0  0  0  0  0  0  0  0  0
    3.0000   -2.5981    0.0000 C   0  0  0  0  0  0  0  0  0  0  0  0
    3.7500   -3.8971    0.0000 C   0  0  0  0  0  0  0  0  0  0  0  0
    5.2500   -3.8971    0.0000 C   0  0  0  0  0  0  0  0  0  0  0  0
    6.0000   -2.5981    0.0000 C   0  0  0  0  0  0  0  0  0  0  0  0
    7.5000   -2.5981    0.0000 Cl  0  0  0  0  0  0  0  0  0  0  0  0
    5.2500   -1.2990    0.0000 C   0  0  0  0  0  0  0  0  0  0  0  0
    6.0000    0.0000    0.0000 Cl  0  0  0  0  0  0  0  0  0  0  0  0
    3.7500   -1.2990    0.0000 C   0  0  0  0  0  0  0  0  0  0  0  0
    0.7500   -1.2990    0.0000 C   0  0  0  0  0  0  0  0  0  0  0  0
    1.5000    0.0000    0.0000 C   0  0  0  0  0  0  0  0  0  0  0  0
    0.7500    1.2990    0.0000 C   0  0  0  0  0  0  0  0  0  0  0  0
   -0.7500    1.2990    0.0000 C   0  0  0  0  0  0  0  0  0  0  0  0
   -1.5000    0.0000    0.0000 C   0  0  0  0  0  0  0  0  0  0  0  0
   -0.7500   -1.2990    0.0000 C   0  0  0  0  0  0  0  0  0  0  0  0
  1  2  1  0
  3  2  1  6
  3  4  1  0
  4  5  1  0
  5  6  1  0
  6  7  1  6
  7  8  2  0
  8  9  1  0
  9 10  2  0
 10 11  1  0
 10 12  1  0
 12 13  1  0
 12 14  2  0
  6 15  1  0
 15 16  2  0
 16 17  1  0
 17 18  2  0
 18 19  1  0
 19 20  2  0
 20  3  1  0
 14  7  1  0
 20 15  1  0
M  END
$$$$
27604
     RDKit          2D

 21 21  0  0  0  0  0  0  0  0999 V2000
    8.0260   -6.4952    0.0000 C   0  0  0  0  0  0  0  0  0  0  0  0
    7.2760   -5.1962    0.0000 N   0  0  0  0  0  0  0  0  0  0  0  0
    8.0260   -3.8971    0.0000 C   0  0  0  0  0  0  0  0  0  0  0  0
    9.5260   -3.8971    0.0000 C   0  0  0  0  0  0  0  0  0  0  0  0
   10.2760   -5.1962    0.0000 N   0  0  0  0  0  4  0  0  0  0  0  0
    9.5260   -6.4952    0.0000 O   0  0  0  0  0  0  0  0  0  0  0  0
   11.7760   -5.1962    0.0000 O   0  0  0  0  0  1  0  0  0  0  0  0
    7.2760   -2.5981    0.0000 N   0  0  0  0  0  0  0  0  0  0  0  0
    5.7760   -2.5981    0.0000 C   0  0  0  0  0  0  0  0  0  0  0  0
    5.0260   -1.2990    0.0000 C   0  0  0  0  0  0  0  0  0  0  0  0
    3.5260   -1.2990    0.0000 S   0  0  0  0  0  0  0  0  0  0  0  0
    2.7760    0.0000    0.0000 C   0  0  0  0  0  0  0  0  0  0  0  0
    1.2760    0.0000    0.0000 C   0  0  0  0  0  0  0  0  0  0  0  0
    0.3943    1.2135    0.0000 C   0  0  0  0  0  0  0  0  0  0  0  0
   -1.0323    0.7500    0.0000 S   0  0  0  0  0  0  0  0  0  0  0  0
   -1.0323   -0.7500    0.0000 C   0  0  0  0  0  0  0  0  0  0  0  0
   -2.2458   -1.6317    0.0000 C   0  0  0  0  0  0  0  0  0  0  0  0
   -3.6161   -1.0216    0.0000 N   0  0  0  0  0  0  0  0  0  0  0  0
   -4.8297   -1.9033    0.0000 C   0  0  0  0  0  0  0  0  0  0  0  0
   -3.7729    0.4702    0.0000 C   0  0  0  0  0  0  0  0  0  0  0  0
    0.3943   -1.2135    0.0000 N   0  0  0  0  0  0  0  0  0  0  0  0
  1  2  1  0
  2  3  1  0
  3  4  2  0
  4  5  1  0
  5  6  2  0
  5  7  1  0
  3  8  1  0
  8  9  1  0
  9 10  1  0
 10 11  1  0
 11 12  1  0
 12 13  1  0
 13 14  2  0
 14 15  1  0
 15 16  1  0
 16 17  1  0
 17 18  1  0
 18 19  1  0
 18 20  1  0
 16 21  2  0
 21 13  1  0
M  CHG  2   5   1   7  -1
M  END
$$$$
675211
     RDKit          2D

 13 13  0  0  0  0  0  0  0  0999 V2000
    7.5000    0.0000    0.0000 C   0  0  0  0  0  0  0  0  0  0  0  0
    6.0000    0.0000    0.0000 N   0  0  0  0  0  0  0  0  0  0  0  0
    5.2500   -1.2990    0.0000 C   0  0  0  0  0  0  0  0  0  0  0  0
    6.0000   -2.5981    0.0000 N   0  0  0  0  0  0  0  0  0  0  0  0
    7.5000   -2.5981    0.0000 C   0  0  0  0  0  0  0  0  0  0  0  0
    3.7500   -1.2990    0.0000 N   0  0  0  0  0  0  0  0  0  0  0  0
    3.0000    0.0000    0.0000 C   0  0  0  0  0  0  0  0  0  0  0  0
    1.5000    0.0000    0.0000 C   0  0  0  0  0  0  0  0  0  0  0  0
    0.7500   -1.2990    0.0000 C   0  0  0  0  0  0  0  0  0  0  0  0
   -0.7500   -1.2990    0.0000 C   0  0  0  0  0  0  0  0  0  0  0  0
   -1.5000    0.0000    0.0000 C   0  0  0  0  0  0  0  0  0  0  0  0
   -0.7500    1.2990    0.0000 C   0  0  0  0  0  0  0  0  0  0  0  0
    0.7500    1.2990    0.0000 C   0  0  0  0  0  0  0  0  0  0  0  0
  1  2  1  0
  2  3  1  0
  3  4  2  0
  4  5  1  0
  3  6  1  0
  6  7  1  0
  7  8  1  0
  8  9  2  0
  9 10  1  0
 10 11  2  0
 11 12  1  0
 12 13  2  0
 13  8  1  0
M  END
$$$$
1382808
     RDKit          2D

 31 30  0  0  0  0  0  0  0  0999 V2000
    7.5000    0.0000    0.0000 C   0  0  0  0  0  0  0  0  0  0  0  0
    6.0000    0.0000    0.0000 N   0  0  0  0  0  0  0  0  0  0  0  0
    5.2500   -1.2990    0.0000 C   0  0  0  0  0  0  0  0  0  0  0  0
    6.0000   -2.5981    0.0000 N   0  0  0  0  0  0  0  0  0  0  0  0
    7.5000   -2.5981    0.0000 C   0  0  0  0  0  0  0  0  0  0  0  0
    3.7500   -1.2990    0.0000 N   0  0  0  0  0  0  0  0  0  0  0  0
    3.0000    0.0000    0.0000 C   0  0  0  0  0  0  0  0  0  0  0  0
    1.5000    0.0000    0.0000 C   0  0  0  0  0  0  0  0  0  0  0  0
    0.7500   -1.2990    0.0000 C   0  0  0  0  0  0  0  0  0  0  0  0
   -0.7500   -1.2990    0.0000 C   0  0  0  0  0  0  0  0  0  0  0  0
   -1.5000    0.0000    0.0000 C   0  0  0  0  0  0  0  0  0  0  0  0
   -0.7500    1.2990    0.0000 C   0  0  0  0  0  0  0  0  0  0  0  0
    0.7500    1.2990    0.0000 C   0  0  0  0  0  0  0  0  0  0  0  0
    7.5000    4.8971    0.0000 C   0  0  0  0  0  0  0  0  0  0  0  0
    6.0000    4.8971    0.0000 N   0  0  0  0  0  0  0  0  0  0  0  0
    5.2500    3.5981    0.0000 C   0  0  0  0  0  0  0  0  0  0  0  0
    6.0000    2.2990    0.0000 N   0  0  0  0  0  0  0  0  0  0  0  0
    7.5000    2.2990    0.0000 C   0  0  0  0  0  0  0  0  0  0  0  0
    3.7500    3.5981    0.0000 N   0  0  0  0  0  0  0  0  0  0  0  0
    3.0000    4.8971    0.0000 C   0  0  0  0  0  0  0  0  0  0  0  0
    1.5000    4.8971    0.0000 C   0  0  0  0  0  0  0  0  0  0  0  0
    0.7500    3.5981    0.0000 C   0  0  0  0  0  0  0  0  0  0  0  0
   -0.7500    3.5981    0.0000 C   0  0  0  0  0  0  0  0  0  0  0  0
   -1.5000    4.8971    0.0000 C   0  0  0  0  0  0  0  0  0  0  0  0
   -0.7500    6.1962    0.0000 C   0  0  0  0  0  0  0  0  0  0  0  0
    0.7500    6.1962    0.0000 C   0  0  0  0  0  0  0  0  0  0  0  0
    0.0000    7.7452    0.0000 O   0  0  0  0  0  0  0  0  0  0  0  0
    1.2990    8.4952    0.0000 S   0  0  0  0  0  0  0  0  0  0  0  0
    2.0490    7.1962    0.0000 O   0  0  0  0  0  0  0  0  0  0  0  0
    0.5490    9.7942    0.0000 O   0  0  0  0  0  0  0  0  0  0  0  0
    2.5981    9.2452    0.0000 O   0  0  0  0  0  0  0  0  0  0  0  0
  1  2  1  0
  2  3  1  0
  3  4  2  0
  4  5  1  0
  3  6  1  0
  6  7  1  0
  7  8  1  0
  8  9  2  0
  9 10  1  0
 10 11  2  0
 11 12  1  0
 12 13  2  0
 14 15  1  0
 15 16  1  0
 16 17  2  0
 17 18  1  0
 16 19  1  0
 19 20  1  0
 20 21  1  0
 21 22  2  0
 22 23  1  0
 23 24  2  0
 24 25  1  0
 25 26  2  0
 27 28  1  0
 28 29  2  0
 28 30  2  0
 28 31  1  0
 13  8  1  0
 26 21  1  0
M  END
$$$$
1620
     RDKit          2D

 17 17  0  0  0  0  0  0  0  0999 V2000
    8.0260   -6.4952    0.0000 C   0  0  0  0  0  0  0  0  0  0  0  0
    7.2760   -5.1962    0.0000 N   0  0  0  0  0  0  0  0  0  0  0  0
    8.0260   -3.8971    0.0000 C   0  0  0  0  0  0  0  0  0  0  0  0
    7.2760   -2.5981    0.0000 N   0  0  0  0  0  0  0  0  0  0  0  0
    5.7760   -2.5981    0.0000 C   0  0  0  0  0  0  0  0  0  0  0  0
    5.0260   -1.2990    0.0000 C   0  0  0  0  0  0  0  0  0  0  0  0
    3.5260   -1.2990    0.0000 S   0  0  0  0  0  0  0  0  0  0  0  0
    2.7760    0.0000    0.0000 C   0  0  0  0  0  0  0  0  0  0  0  0
    1.2760    0.0000    0.0000 C   0  0  0  0  0  0  0  0  0  0  0  0
    0.3943    1.2135    0.0000 N   0  0  0  0  0  0  0  0  0  0  0  0
   -1.0323    0.7500    0.0000 C   0  0  0  0  0  0  0  0  0  0  0  0
   -1.0323   -0.7500    0.0000 N   0  0  0  0  0  0  0  0  0  0  0  0
    0.3943   -1.2135    0.0000 C   0  0  0  0  0  0  0  0  0  0  0  0
    0.8578   -2.6401    0.0000 C   0  0  0  0  0  0  0  0  0  0  0  0
    9.5260   -3.8971    0.0000 N   0  0  0  0  0  0  0  0  0  0  0  0
   10.2760   -5.1962    0.0000 C   0  0  0  0  0  0  0  0  0  0  0  0
   11.0260   -6.4952    0.0000 N   0  0  0  0  0  0  0  0  0  0  0  0
  1  2  1  0
  2  3  1  0
  3  4  2  0
  4  5  1  0
  5  6  1  0
  6  7  1  0
  7  8  1  0
  8  9  1  0
  9 10  1  0
 10 11  2  0
 11 12  1  0
 12 13  1  0
 13 14  1  0
  3 15  1  0
 15 16  1  0
 16 17  3  0
 13  9  2  0
M  END
$$$$
49842
     RDKit          2D

 17 18  0  0  0  0  0  0  0  0999 V2000
    5.2500   -3.8971    0.0000 C   0  0  0  0  0  0  0  0  0  0  0  0
    3.7500   -3.8971    0.0000 O   0  0  0  0  0  0  0  0  0  0  0  0
    3.0000   -2.5981    0.0000 C   0  0  0  0  0  0  0  0  0  0  0  0
    3.7500   -1.2990    0.0000 O   0  0  0  0  0  0  0  0  0  0  0  0
    1.5000   -2.5981    0.0000 C   0  0  0  0  0  0  0  0  0  0  0  0
    0.7500   -1.2990    0.0000 C   0  0  0  0  0  0  0  0  0  0  0  0
    1.5000    0.0000    0.0000 C   0  0  0  0  0  0  0  0  0  0  0  0
    0.7500    1.2990    0.0000 C   0  0  0  0  0  0  0  0  0  0  0  0
   -0.7500    1.2990    0.0000 C   0  0  0  0  0  0  0  0  0  0  0  0
   -1.5000    0.0000    0.0000 C   0  0  0  0  0  0  0  0  0  0  0  0
   -0.7500   -1.2990    0.0000 N   0  0  0  0  0  0  0  0  0  0  0  0
    0.7500   -3.8971    0.0000 C   0  0  0  0  0  0  0  0  0  0  0  0
   -0.7500   -3.8971    0.0000 C   0  0  0  0  0  0  0  0  0  0  0  0
   -1.5000   -5.1962    0.0000 C   0  0  0  0  0  0  0  0  0  0  0  0
   -0.7500   -6.4952    0.0000 C   0  0  0  0  0  0  0  0  0  0  0  0
    0.7500   -6.4952    0.0000 C   0  0  0  0  0  0  0  0  0  0  0  0
    1.5000   -5.1962    0.0000 C   0  0  0  0  0  0  0  0  0  0  0  0
  1  2  1  0
  2  3  1  0
  3  4  2  0
  3  5  1  0
  5  6  1  0
  6  7  1  0
  7  8  1  0
  8  9  1  0
  9 10  1  0
 10 11  1  0
  5 12  1  0
 12 13  2  0
 13 14  1  0
 14 15  2  0
 15 16  1  0
 16 17  2  0
 11  6  1  0
 17 12  1  0
M  END
$$$$
407549
     RDKit          2D

 35 37  0  0  0  0  0  0  0  0999 V2000
    5.2500   -1.2990    0.0000 C   0  0  0  0  0  0  0  0  0  0  0  0
    3.7500   -1.2990    0.0000 O   0  0  0  0  0  0  0  0  0  0  0  0
    3.0000    0.0000    0.0000 C   0  0  0  0  0  0  0  0  0  0  0  0
    3.7500    1.2990    0.0000 O   0  0  0  0  0  0  0  0  0  0  0  0
    1.5000    0.0000    0.0000 C   0  0  0  0  0  0  0  0  0  0  0  0
    0.7500   -1.2990    0.0000 C   0  0  0  0  0  0  0  0  0  0  0  0
    1.5000   -2.5981    0.0000 C   0  0  0  0  0  0  0  0  0  0  0  0
   -0.7500   -1.2990    0.0000 N   0  0  0  0  0  0  0  0  0  0  0  0
   -1.5000    0.0000    0.0000 C   0  0  0  0  0  0  0  0  0  0  0  0
   -0.7500    1.2990    0.0000 C   0  0  0  0  0  0  0  0  0  0  0  0
    0.7500    1.2990    0.0000 C   0  0  0  0  0  0  0  0  0  0  0  0
    1.5000    2.5981    0.0000 C   0  0  0  0  0  0  0  0  0  0  0  0
    3.0000    2.5981    0.0000 C   0  0  0  0  0  0  0  0  0  0  0  0
    3.7500    3.8971    0.0000 C   0  0  0  0  0  0  0  0  0  0  0  0
    3.0000    5.1962    0.0000 C   0  0  0  0  0  0  0  0  0  0  0  0
    1.5000    5.1962    0.0000 C   0  0  0  0  0  0  0  0  0  0  0  0
    0.7500    3.8971    0.0000 C   0  0  0  0  0  0  0  0  0  0  0  0
    0.7500    6.4952    0.0000 N   0  0  0  0  0  4  0  0  0  0  0  0
   -0.7500    6.4952    0.0000 O   0  0  0  0  0  0  0  0  0  0  0  0
    1.5000    7.7942    0.0000 O   0  0  0  0  0  1  0  0  0  0  0  0
   -1.5000    2.5981    0.0000 C   0  0  0  0  0  0  0  0  0  0  0  0
   -0.7500    3.8971    0.0000 O   0  0  0  0  0  0  0  0  0  0  0  0
   -3.0000    2.5981    0.0000 O   0  0  0  0  0  0  0  0  0  0  0  0
   -3.7500    3.8971    0.0000 C   0  0  0  0  0  0  0  0  0  0  0  0
   -5.2500    3.8971    0.0000 C   0  0  0  0  0  0  0  0  0  0  0  0
   -6.0000    5.1962    0.0000 N   0  0  0  0  0  0  0  0  0  0  0  0
   -7.5000    5.1962    0.0000 C   0  0  0  0  0  0  0  0  0  0  0  0
   -5.2500    6.4952    0.0000 C   0  0  0  0  0  0  0  0  0  0  0  0
   -6.0000    7.7942    0.0000 C   0  0  0  0  0  0  0  0  0  0  0  0
   -5.2500    9.0933    0.0000 C   0  0  0  0  0  0  0  0  0  0  0  0
   -6.0000   10.3923    0.0000 C   0  0  0  0  0  0  0  0  0  0  0  0
   -7.5000   10.3923    0.0000 C   0  0  0  0  0  0  0  0  0  0  0  0
   -8.2500    9.0933    0.0000 C   0  0  0  0  0  0  0  0  0  0  0  0
   -7.5000    7.7942    0.0000 C   0  0  0  0  0  0  0  0  0  0  0  0
   -3.0000    0.0000    0.0000 C   0  0  0  0  0  0  0  0  0  0  0  0
  1  2  1  0
  2  3  1  0
  3  4  2  0
  3  5  1  0
  5  6  2  0
  6  7  1  0
  6  8  1  0
  8  9  1  0
  9 10  2  0
 10 11  1  0
 11 12  1  0
 12 13  2  0
 13 14  1  0
 14 15  2  0
 15 16  1  0
 16 17  2  0
 16 18  1  0
 18 19  2  0
 18 20  1  0
 10 21  1  0
 21 22  2  0
 21 23  1  0
 23 24  1  0
 24 25  1  0
 25 26  1  0
 26 27  1  0
 26 28  1  0
 28 29  1  0
 29 30  2  0
 30 31  1  0
 31 32  2  0
 32 33  1  0
 33 34  2  0
  9 35  1  0
 11  5  1  0
 17 12  1  0
 34 29  1  0
M  CHG  2  18   1  20  -1
M  END
$$$$
486789
     RDKit          2D

 27 29  0  0  0  0  0  0  0  0999 V2000
   -1.9679   -3.6517    0.0000 C   0  0  0  0  0  0  0  0  0  0  0  0
   -3.0826   -2.6480    0.0000 O   0  0  0  0  0  0  0  0  0  0  0  0
   -2.7707   -1.1807    0.0000 C   0  0  0  0  0  0  0  0  0  0  0  0
   -1.8872   -1.1190    0.0000 O   0  0  0  0  0  0  0  0  0  0  0  0
   -3.8855   -0.1771    0.0000 C   0  0  0  0  0  0  0  0  0  0  0  0
   -5.3120   -0.6406    0.0000 C   0  0  0  0  0  0  0  0  0  0  0  0
   -5.6239   -2.1078    0.0000 C   0  0  0  0  0  0  0  0  0  0  0  0
   -6.4268    0.3631    0.0000 N   0  0  0  0  0  0  0  0  0  0  0  0
   -6.1149    1.8303    0.0000 C   0  0  0  0  0  0  0  0  0  0  0  0
   -4.6883    2.2939    0.0000 C   0  0  0  0  0  0  0  0  0  0  0  0
   -3.5736    1.2902    0.0000 C   0  0  0  0  0  0  0  0  0  0  0  0
   -2.1470    1.7537    0.0000 C   0  0  0  0  0  0  0  0  0  0  0  0
   -1.8351    3.2209    0.0000 C   0  0  0  0  0  0  0  0  0  0  0  0
   -0.4086    3.6844    0.0000 C   0  0  0  0  0  0  0  0  0  0  0  0
    0.7062    2.6807    0.0000 C   0  0  0  0  0  0  0  0  0  0  0  0
    0.3943    1.2135    0.0000 C   0  0  0  0  0  0  0  0  0  0  0  0
    1.2760    0.0000    0.0000 N   0  0  0  0  0  0  0  0  0  0  0  0
    0.3943   -1.2135    0.0000 O   0  0  0  0  0  0  0  0  0  0  0  0
   -1.0323   -0.7500    0.0000 N   0  0  0  0  0  0  0  0  0  0  0  0
   -1.0323    0.7500    0.0000 C   0  0  0  0  0  0  0  0  0  0  0  0
   -4.3764    3.7611    0.0000 C   0  0  0  0  0  0  0  0  0  0  0  0
   -2.9499    4.2246    0.0000 O   0  0  0  0  0  0  0  0  0  0  0  0
   -5.4912    4.7648    0.0000 O   0  0  0  0  0  0  0  0  0  0  0  0
   -5.1793    6.2320    0.0000 C   0  0  0  0  0  0  0  0  0  0  0  0
   -6.2940    7.2357    0.0000 C   0  0  0  0  0  0  0  0  0  0  0  0
   -3.7527    6.6955    0.0000 C   0  0  0  0  0  0  0  0  0  0  0  0
   -7.2296    2.8340    0.0000 C   0  0  0  0  0  0  0  0  0  0  0  0
  1  2  1  0
  2  3  1  0
  3  4  2  0
  3  5  1  0
  5  6  2  0
  6  7  1  0
  6  8  1  0
  8  9  1  0
  9 10  2  0
 10 11  1  0
 11 12  1  0
 12 13  2  0
 13 14  1  0
 14 15  2  0
 15 16  1  0
 16 17  2  0
 17 18  1  0
 18 19  1  0
 19 20  2  0
 10 21  1  0
 21 22  2  0
 21 23  1  0
 23 24  1  0
 24 25  1  0
 24 26  1  0
  9 27  1  0
 11  5  1  0
 20 12  1  0
 20 16  1  0
M  END
$$$$
419596
     RDKit          2D

 25 26  0  0  0  0  0  0  0  0999 V2000
    5.2500   -1.2990    0.0000 C   0  0  0  0  0  0  0  0  0  0  0  0
    3.7500   -1.2990    0.0000 O   0  0  0  0  0  0  0  0  0  0  0  0
    3.0000    0.0000    0.0000 C   0  0  0  0  0  0  0  0  0  0  0  0
    3.7500    1.2990    0.0000 O   0  0  0  0  0  0  0  0  0  0  0  0
    1.5000    0.0000    0.0000 C   0  0  0  0  0  0  0  0  0  0  0  0
    0.7500   -1.2990    0.0000 C   0  0  0  0  0  0  0  0  0  0  0  0
    1.5000   -2.5981    0.0000 C   0  0  0  0  0  0  0  0  0  0  0  0
   -0.7500   -1.2990    0.0000 N   0  0  0  0  0  0  0  0  0  0  0  0
   -1.5000    0.0000    0.0000 C   0  0  0  0  0  0  0  0  0  0  0  0
   -0.7500    1.2990    0.0000 C   0  0  0  0  0  0  0  0  0  0  0  0
    0.7500    1.2990    0.0000 C   0  0  0  0  0  0  0  0  0  0  0  0
    1.5000    2.5981    0.0000 C   0  0  0  0  0  0  0  0  0  0  0  0
    3.0000    2.5981    0.0000 C   0  0  0  0  0  0  0  0  0  0  0  0
    3.7500    3.8971    0.0000 C   0  0  0  0  0  0  0  0  0  0  0  0
    3.0000    5.1962    0.0000 C   0  0  0  0  0  0  0  0  0  0  0  0
    1.5000    5.1962    0.0000 C   0  0  0  0  0  0  0  0  0  0  0  0
    0.7500    3.8971    0.0000 C   0  0  0  0  0  0  0  0  0  0  0  0
   -0.7500    3.8971    0.0000 N   0  0  0  0  0  4  0  0  0  0  0  0
   -1.3038    3.3237    0.0000 O   0  0  0  0  0  0  0  0  0  0  0  0
   -1.5000    5.1962    0.0000 O   0  0  0  0  0  1  0  0  0  0  0  0
   -1.5000    2.5981    0.0000 C   0  0  0  0  0  0  0  0  0  0  0  0
   -1.0866    4.0400    0.0000 O   0  0  0  0  0  0  0  0  0  0  0  0
   -3.0000    2.5981    0.0000 O   0  0  0  0  0  0  0  0  0  0  0  0
   -3.7500    3.8971    0.0000 C   0  0  0  0  0  0  0  0  0  0  0  0
   -3.0000    0.0000    0.0000 C   0  0  0  0  0  0  0  0  0  0  0  0
  1  2  1  0
  2  3  1  0
  3  4  2  0
  3  5  1  0
  5  6  2  0
  6  7  1  0
  6  8  1  0
  8  9  1  0
  9 10  2  0
 10 11  1  0
 11 12  1  0
 12 13  2  0
 13 14  1  0
 14 15  2  0
 15 16  1  0
 16 17  2  0
 17 18  1  0
 18 19  2  0
 18 20  1  0
 10 21  1  0
 21 22  2  0
 21 23  1  0
 23 24  1  0
  9 25  1  0
 11  5  1  0
 17 12  1  0
M  CHG  2  18   1  20  -1
M  END
$$$$
554892
     RDKit          2D

 28 29  0  0  0  0  0  0  0  0999 V2000
    5.2500   -1.2990    0.0000 C   0  0  0  0  0  0  0  0  0  0  0  0
    3.7500   -1.2990    0.0000 O   0  0  0  0  0  0  0  0  0  0  0  0
    3.0000   -0.0000    0.0000 C   0  0  0  0  0  0  0  0  0  0  0  0
    3.5538    0.5734    0.0000 O   0  0  0  0  0  0  0  0  0  0  0  0
    1.5000    0.0000    0.0000 C   0  0  0  0  0  0  0  0  0  0  0  0
    0.7500   -1.2990    0.0000 C   0  0  0  0  0  0  0  0  0  0  0  0
    1.5000   -2.5981    0.0000 C   0  0  0  0  0  0  0  0  0  0  0  0
   -0.7500   -1.2990    0.0000 N   0  0  0  0  0  0  0  0  0  0  0  0
   -1.5000    0.0000    0.0000 C   0  0  0  0  0  0  0  0  0  0  0  0
   -0.7500    1.2990    0.0000 C   0  0  0  0  0  0  0  0  0  0  0  0
    0.7500    1.2990    0.0000 C   0  0  0  0  0  0  0  0  0  0  0  0
    1.5000    2.5981    0.0000 C   0  0  0  0  0  0  0  0  0  0  0  0
    0.7500    3.8971    0.0000 C   0  0  0  0  0  0  0  0  0  0  0  0
    1.5000    5.1962    0.0000 C   0  0  0  0  0  0  0  0  0  0  0  0
    3.0000    5.1962    0.0000 C   0  0  0  0  0  0  0  0  0  0  0  0
    3.7500    3.8971    0.0000 C   0  0  0  0  0  0  0  0  0  0  0  0
    3.0000    2.5981    0.0000 C   0  0  0  0  0  0  0  0  0  0  0  0
    3.7500    1.2990    0.0000 N   0  0  0  0  0  4  0  0  0  0  0  0
    3.3366   -0.1429    0.0000 O   0  0  0  0  0  0  0  0  0  0  0  0
    5.2500    1.2990    0.0000 O   0  0  0  0  0  1  0  0  0  0  0  0
   -1.5000    2.5981    0.0000 C   0  0  0  0  0  0  0  0  0  0  0  0
   -0.7500    3.8971    0.0000 O   0  0  0  0  0  0  0  0  0  0  0  0
   -3.0000    2.5981    0.0000 O   0  0  0  0  0  0  0  0  0  0  0  0
   -3.7500    3.8971    0.0000 C   0  0  0  0  0  0  0  0  0  0  0  0
   -5.2500    3.8971    0.0000 C   0  0  0  0  0  0  0  0  0  0  0  0
   -6.0000    5.1962    0.0000 C   0  0  0  0  0  0  0  0  0  0  0  0
   -6.0000    2.5981    0.0000 C   0  0  0  0  0  0  0  0  0  0  0  0
   -3.0000    0.0000    0.0000 C   0  0  0  0  0  0  0  0  0  0  0  0
  1  2  1  0
  2  3  1  0
  3  4  2  0
  3  5  1  0
  5  6  2  0
  6  7  1  0
  6  8  1  0
  8  9  1  0
  9 10  2  0
 10 11  1  0
 11 12  1  0
 12 13  2  0
 13 14  1  0
 14 15  2  0
 15 16  1  0
 16 17  2  0
 17 18  1  0
 18 19  2  0
 18 20  1  0
 10 21  1  0
 21 22  2  0
 21 23  1  0
 23 24  1  0
 24 25  1  0
 25 26  1  0
 25 27  1  0
  9 28  1  0
 11  5  1  0
 17 12  1  0
M  CHG  2  18   1  20  -1
M  END
$$$$
522730
     RDKit          2D

 40 44  0  0  0  0  0  0  0  0999 V2000
    5.2500   -1.2990    0.0000 C   0  0  0  0  0  0  0  0  0  0  0  0
    3.7500   -1.2990    0.0000 O   0  0  0  0  0  0  0  0  0  0  0  0
    3.0000    0.0000    0.0000 C   0  0  0  0  0  0  0  0  0  0  0  0
    3.7500    1.2990    0.0000 O   0  0  0  0  0  0  0  0  0  0  0  0
    1.5000    0.0000    0.0000 C   0  0  0  0  0  0  0  0  0  0  0  0
    0.7500   -1.2990    0.0000 C   0  0  0  0  0  0  0  0  0  0  0  0
   -0.7500   -1.2990    0.0000 C   0  0  0  0  0  0  0  0  0  0  0  0
   -1.5000    0.0000    0.0000 C   0  0  0  0  0  0  0  0  0  0  0  0
   -2.9672    0.3119    0.0000 C   0  0  0  0  0  0  0  0  0  0  0  0
   -4.0819   -0.6918    0.0000 C   0  0  0  0  0  0  0  0  0  0  0  0
   -5.5085   -0.2283    0.0000 N   0  0  0  0  0  0  0  0  0  0  0  0
   -6.6232   -1.2320    0.0000 C   0  0  0  0  0  0  0  0  0  0  0  0
   -8.0498   -0.7685    0.0000 C   0  0  0  0  0  0  0  0  0  0  0  0
   -9.1645   -1.7722    0.0000 C   0  0  0  0  0  0  0  0  0  0  0  0
   -8.8527   -3.2394    0.0000 C   0  0  0  0  0  0  0  0  0  0  0  0
   -7.4261   -3.7029    0.0000 C   0  0  0  0  0  0  0  0  0  0  0  0
   -6.3114   -2.6992    0.0000 C   0  0  0  0  0  0  0  0  0  0  0  0
   -9.9674   -4.2431    0.0000 N   0  0  0  0  0  0  0  0  0  0  0  0
  -11.3940   -3.7796    0.0000 C   0  0  0  0  0  0  0  0  0  0  0  0
   -9.6555   -5.7103    0.0000 C   0  0  0  0  0  0  0  0  0  0  0  0
   -8.2289   -6.1738    0.0000 O   0  0  0  0  0  0  0  0  0  0  0  0
  -10.7702   -6.7140    0.0000 C   0  0  0  0  0  0  0  0  0  0  0  0
  -10.4584   -8.1812    0.0000 N   0  0  0  0  0  0  0  0  0  0  0  0
  -11.5731   -9.1849    0.0000 C   0  0  0  0  0  0  0  0  0  0  0  0
  -11.2612  -10.6521    0.0000 C   0  0  0  0  0  0  0  0  0  0  0  0
   -9.8346  -11.1157    0.0000 N   0  0  0  0  0  0  0  0  0  0  0  0
   -9.5228  -12.5829    0.0000 C   0  0  0  0  0  0  0  0  0  0  0  0
   -8.7199  -10.1120    0.0000 C   0  0  0  0  0  0  0  0  0  0  0  0
   -9.0318   -8.6448    0.0000 C   0  0  0  0  0  0  0  0  0  0  0  0
   -3.7701   -2.1590    0.0000 C   0  0  0  0  0  0  0  0  0  0  0  0
   -4.8848   -3.1627    0.0000 C   0  0  0  0  0  0  0  0  0  0  0  0
   -4.5729   -4.6300    0.0000 C   0  0  0  0  0  0  0  0  0  0  0  0
   -3.1463   -5.0935    0.0000 C   0  0  0  0  0  0  0  0  0  0  0  0
   -2.0316   -4.0898    0.0000 C   0  0  0  0  0  0  0  0  0  0  0  0
   -2.3435   -2.6226    0.0000 C   0  0  0  0  0  0  0  0  0  0  0  0
   -3.1240    1.8037    0.0000 C   0  0  0  0  0  0  0  0  0  0  0  0
   -4.4231    2.5537    0.0000 O   0  0  0  0  0  0  0  0  0  0  0  0
   -1.7537    2.4138    0.0000 N   0  0  0  0  0  0  0  0  0  0  0  0
   -0.7500    1.2990    0.0000 C   0  0  0  0  0  0  0  0  0  0  0  0
    0.7500    1.2990    0.0000 C   0  0  0  0  0  0  0  0  0  0  0  0
  1  2  1  0
  2  3  1  0
  3  4  2  0
  3  5  1  0
  5  6  2  0
  6  7  1  0
  7  8  2  0
  8  9  1  0
  9 10  2  0
 10 11  1  0
 11 12  1  0
 12 13  2  0
 13 14  1  0
 14 15  2  0
 15 16  1  0
 16 17  2  0
 15 18  1  0
 18 19  1  0
 18 20  1  0
 20 21  2  0
 20 22  1  0
 22 23  1  0
 23 24  1  0
 24 25  1  0
 25 26  1  0
 26 27  1  0
 26 28  1  0
 28 29  1  0
 10 30  1  0
 30 31  2  0
 31 32  1  0
 32 33  2  0
 33 34  1  0
 34 35  2  0
  9 36  1  0
 36 37  2  0
 36 38  1  0
 38 39  1  0
 39 40  2  0
 40  5  1  0
 39  8  1  0
 17 12  1  0
 29 23  1  0
 35 30  1  0
M  END
$$$$
1380104
     RDKit          2D

 31 34  0  0  0  0  0  0  0  0999 V2000
   -8.9702   -7.9777    0.0000 C   0  0  0  0  0  0  0  0  0  0  0  0
   -8.6583   -6.5105    0.0000 O   0  0  0  0  0  0  0  0  0  0  0  0
   -7.2317   -6.0469    0.0000 C   0  0  0  0  0  0  0  0  0  0  0  0
   -6.1170   -7.0506    0.0000 O   0  0  0  0  0  0  0  0  0  0  0  0
   -6.9199   -4.5797    0.0000 N   0  0  0  0  0  0  0  0  0  0  0  0
   -8.0346   -3.5760    0.0000 C   0  0  0  0  0  0  0  0  0  0  0  0
   -5.4933   -4.1162    0.0000 C   0  0  0  0  0  0  0  0  0  0  0  0
   -5.1814   -2.6490    0.0000 C   0  0  0  0  0  0  0  0  0  0  0  0
   -6.2961   -1.6453    0.0000 N   0  0  0  0  0  0  0  0  0  0  0  0
   -3.7548   -2.1855    0.0000 N   0  0  0  0  0  0  0  0  0  0  0  0
   -2.6401   -3.1891    0.0000 C   0  0  0  0  0  0  0  0  0  0  0  0
   -2.9520   -4.6564    0.0000 N   0  0  0  0  0  0  0  0  0  0  0  0
   -4.3786   -5.1199    0.0000 C   0  0  0  0  0  0  0  0  0  0  0  0
   -4.6904   -6.5871    0.0000 N   0  0  0  0  0  0  0  0  0  0  0  0
   -1.2135   -2.7256    0.0000 C   0  0  0  0  0  0  0  0  0  0  0  0
   -0.0000   -3.6073    0.0000 N   0  0  0  0  0  0  0  0  0  0  0  0
    1.2135   -2.7256    0.0000 N   0  0  0  0  0  0  0  0  0  0  0  0
    2.6401   -3.1891    0.0000 C   0  0  0  0  0  0  0  0  0  0  0  0
    2.9520   -4.6564    0.0000 C   0  0  0  0  0  0  0  0  0  0  0  0
    1.8373   -5.6601    0.0000 C   0  0  0  0  0  0  0  0  0  0  0  0
    2.1491   -7.1273    0.0000 C   0  0  0  0  0  0  0  0  0  0  0  0
    3.5757   -7.5908    0.0000 C   0  0  0  0  0  0  0  0  0  0  0  0
    4.6904   -6.5871    0.0000 C   0  0  0  0  0  0  0  0  0  0  0  0
    4.3786   -5.1199    0.0000 C   0  0  0  0  0  0  0  0  0  0  0  0
    5.4933   -4.1162    0.0000 F   0  0  0  0  0  0  0  0  0  0  0  0
    0.7500   -1.2990    0.0000 C   0  0  0  0  0  0  0  0  0  0  0  0
    1.5000    0.0000    0.0000 N   0  0  0  0  0  0  0  0  0  0  0  0
    0.7500    1.2990    0.0000 C   0  0  0  0  0  0  0  0  0  0  0  0
   -0.7500    1.2990    0.0000 C   0  0  0  0  0  0  0  0  0  0  0  0
   -1.5000    0.0000    0.0000 C   0  0  0  0  0  0  0  0  0  0  0  0
   -0.7500   -1.2990    0.0000 C   0  0  0  0  0  0  0  0  0  0  0  0
  1  2  1  0
  2  3  1  0
  3  4  2  0
  3  5  1  0
  5  6  1  0
  5  7  1  0
  7  8  2  0
  8  9  1  0
  8 10  1  0
 10 11  2  0
 11 12  1  0
 12 13  2  0
 13 14  1  0
 11 15  1  0
 15 16  2  0
 16 17  1  0
 17 18  1  0
 18 19  1  0
 19 20  2  0
 20 21  1  0
 21 22  2  0
 22 23  1  0
 23 24  2  0
 24 25  1  0
 17 26  1  0
 26 27  2  0
 27 28  1  0
 28 29  2  0
 29 30  1  0
 30 31  2  0
 13  7  1  0
 31 15  1  0
 24 19  1  0
 31 26  1  0
M  END
$$$$
29637
     RDKit          2D

 22 24  0  0  0  0  0  0  0  0999 V2000
   -2.5981   -8.1073    0.0000 C   0  0  0  0  0  0  0  0  0  0  0  0
   -1.2990   -7.3573    0.0000 O   0  0  0  0  0  0  0  0  0  0  0  0
   -1.2990   -5.8573    0.0000 C   0  0  0  0  0  0  0  0  0  0  0  0
   -2.5981   -5.1073    0.0000 O   0  0  0  0  0  0  0  0  0  0  0  0
   -0.0000   -5.1073    0.0000 N   0  0  0  0  0  0  0  0  0  0  0  0
   -0.0000   -3.6073    0.0000 C   0  0  0  0  0  0  0  0  0  0  0  0
    1.2135   -2.7256    0.0000 N   0  0  0  0  0  0  0  0  0  0  0  0
    0.7500   -1.2990    0.0000 C   0  0  0  0  0  0  0  0  0  0  0  0
    1.5000    0.0000    0.0000 C   0  0  0  0  0  0  0  0  0  0  0  0
    0.7500    1.2990    0.0000 C   0  0  0  0  0  0  0  0  0  0  0  0
   -0.7500    1.2990    0.0000 C   0  0  0  0  0  0  0  0  0  0  0  0
   -1.5000    0.0000    0.0000 C   0  0  0  0  0  0  0  0  0  0  0  0
   -0.7500   -1.2990    0.0000 C   0  0  0  0  0  0  0  0  0  0  0  0
   -1.2135   -2.7256    0.0000 N   0  0  0  0  0  0  0  0  0  0  0  0
   -1.5000    2.5981    0.0000 C   0  0  0  0  0  0  0  0  0  0  0  0
   -3.0000    2.5981    0.0000 O   0  0  0  0  0  0  0  0  0  0  0  0
   -0.7500    3.8971    0.0000 C   0  0  0  0  0  0  0  0  0  0  0  0
    0.7500    3.8971    0.0000 C   0  0  0  0  0  0  0  0  0  0  0  0
    1.5000    5.1962    0.0000 C   0  0  0  0  0  0  0  0  0  0  0  0
    0.7500    6.4952    0.0000 C   0  0  0  0  0  0  0  0  0  0  0  0
   -0.7500    6.4952    0.0000 C   0  0  0  0  0  0  0  0  0  0  0  0
   -1.5000    5.1962    0.0000 C   0  0  0  0  0  0  0  0  0  0  0  0
  1  2  1  0
  2  3  1  0
  3  4  2  0
  3  5  1  0
  5  6  1  0
  6  7  2  0
  7  8  1  0
  8  9  2  0
  9 10  1  0
 10 11  2  0
 11 12  1  0
 12 13  2  0
 13 14  1  0
 11 15  1  0
 15 16  2  0
 15 17  1  0
 17 18  2  0
 18 19  1  0
 19 20  2  0
 20 21  1  0
 21 22  2  0
 14  6  1  0
 13  8  1  0
 22 17  1  0
M  END
$$$$
1548671
     RDKit          2D

 65 74  0  0  0  0  0  0  0  0999 V2000
   -4.1485  -12.2324    0.0000 C   0  0  0  0  0  0  0  0  0  0  0  0
   -2.9350  -11.3507    0.0000 O   0  0  0  0  0  0  0  0  0  0  0  0
   -3.0918   -9.8589    0.0000 C   0  0  0  0  0  0  0  0  0  0  0  0
   -4.4621   -9.2488    0.0000 O   0  0  0  0  0  0  0  0  0  0  0  0
   -1.8783   -8.9772    0.0000 N   0  0  0  0  0  0  0  0  0  0  0  0
   -2.0351   -7.4854    0.0000 C   0  0  0  0  0  0  0  0  0  0  0  0
   -3.4054   -6.8753    0.0000 C   0  0  0  0  0  0  0  0  0  0  0  0
   -4.6189   -7.7570    0.0000 C   0  0  0  0  0  0  0  0  0  0  0  0
   -3.5622   -5.3836    0.0000 C   0  0  0  0  0  0  0  0  0  0  0  0
   -0.8215   -6.6038    0.0000 C   0  0  0  0  0  0  0  0  0  0  0  0
   -0.9783   -5.1120    0.0000 O   0  0  0  0  0  0  0  0  0  0  0  0
    0.5488   -7.2139    0.0000 N   0  0  0  0  0  0  0  0  0  0  0  0
    0.8606   -8.6811    0.0000 C   0  0  0  0  0  0  0  0  0  0  0  0
    2.3524   -8.8379    0.0000 C   0  0  0  0  0  0  0  0  0  0  0  0
    3.6515   -9.5879    0.0000 C   0  0  0  0  0  0  0  0  0  0  0  0
    2.3524  -10.3379    0.0000 C   0  0  0  0  0  0  0  0  0  0  0  0
    2.9625   -7.4676    0.0000 C   0  0  0  0  0  0  0  0  0  0  0  0
    1.8478   -6.4639    0.0000 C   0  0  0  0  0  0  0  0  0  0  0  0
    2.0046   -4.9721    0.0000 C   0  0  0  0  0  0  0  0  0  0  0  0
    0.8899   -3.9684    0.0000 N   0  0  0  0  0  0  0  0  0  0  0  0
    1.5000   -2.5981    0.0000 C   0  0  0  0  0  0  0  0  0  0  0  0
    2.9918   -2.7549    0.0000 C   0  0  0  0  0  0  0  0  0  0  0  0
    3.3037   -4.2221    0.0000 N   0  0  0  0  0  0  0  0  0  0  0  0
    0.7500   -1.2990    0.0000 C   0  0  0  0  0  0  0  0  0  0  0  0
    1.5000    0.0000    0.0000 C   0  0  0  0  0  0  0  0  0  0  0  0
    0.7500    1.2990    0.0000 C   0  0  0  0  0  0  0  0  0  0  0  0
   -0.7500    1.2990    0.0000 C   0  0  0  0  0  0  0  0  0  0  0  0
   -1.7537    2.4138    0.0000 C   0  0  0  0  0  0  0  0  0  0  0  0
   -1.5969    3.9055    0.0000 C   0  0  0  0  0  0  0  0  0  0  0  0
   -2.8104    4.7872    0.0000 C   0  0  0  0  0  0  0  0  0  0  0  0
   -4.1807    4.1771    0.0000 C   0  0  0  0  0  0  0  0  0  0  0  0
   -4.3375    2.6853    0.0000 C   0  0  0  0  0  0  0  0  0  0  0  0
   -3.1240    1.8037    0.0000 C   0  0  0  0  0  0  0  0  0  0  0  0
   -2.9672    0.3119    0.0000 C   0  0  0  0  0  0  0  0  0  0  0  0
   -4.4672    0.3119    0.0000 F   0  0  0  0  0  0  0  0  0  0  0  0
   -3.1240   -1.1799    0.0000 F   0  0  0  0  0  0  0  0  0  0  0  0
   -1.5000    0.0000    0.0000 C   0  0  0  0  0  0  0  0  0  0  0  0
   -0.7500   -1.2990    0.0000 C   0  0  0  0  0  0  0  0  0  0  0  0
   -5.3943    5.0588    0.0000 C   0  0  0  0  0  0  0  0  0  0  0  0
   -6.7646    4.4487    0.0000 C   0  0  0  0  0  0  0  0  0  0  0  0
   -7.9781    5.3304    0.0000 C   0  0  0  0  0  0  0  0  0  0  0  0
   -7.8213    6.8221    0.0000 C   0  0  0  0  0  0  0  0  0  0  0  0
   -8.8250    7.9369    0.0000 N   0  0  0  0  0  0  0  0  0  0  0  0
   -8.0750    9.2359    0.0000 C   0  0  0  0  0  0  0  0  0  0  0  0
   -6.6078    8.9240    0.0000 N   0  0  0  0  0  0  0  0  0  0  0  0
   -6.4510    7.4322    0.0000 C   0  0  0  0  0  0  0  0  0  0  0  0
   -5.2375    6.5506    0.0000 C   0  0  0  0  0  0  0  0  0  0  0  0
   -8.6851   10.6062    0.0000 C   0  0  0  0  0  0  0  0  0  0  0  0
  -10.1523   10.9181    0.0000 C   0  0  0  0  0  0  0  0  0  0  0  0
  -11.1560   12.0328    0.0000 C   0  0  0  0  0  0  0  0  0  0  0  0
  -10.4060   13.3318    0.0000 C   0  0  0  0  0  0  0  0  0  0  0  0
   -8.9388   13.0200    0.0000 C   0  0  0  0  0  0  0  0  0  0  0  0
   -8.7820   11.5282    0.0000 C   0  0  0  0  0  0  0  0  0  0  0  0
   -7.9351   11.9053    0.0000 N   0  0  0  0  0  0  0  0  0  0  0  0
   -6.4433   12.0620    0.0000 C   0  0  0  0  0  0  0  0  0  0  0  0
   -5.5617   10.8485    0.0000 O   0  0  0  0  0  0  0  0  0  0  0  0
   -5.8332   13.4324    0.0000 C   0  0  0  0  0  0  0  0  0  0  0  0
   -6.7149   14.6459    0.0000 N   0  0  0  0  0  0  0  0  0  0  0  0
   -6.1048   16.0162    0.0000 C   0  0  0  0  0  0  0  0  0  0  0  0
   -4.6130   16.1730    0.0000 O   0  0  0  0  0  0  0  0  0  0  0  0
   -6.9865   17.2297    0.0000 O   0  0  0  0  0  0  0  0  0  0  0  0
   -6.3764   18.6001    0.0000 C   0  0  0  0  0  0  0  0  0  0  0  0
   -4.3415   13.5892    0.0000 C   0  0  0  0  0  0  0  0  0  0  0  0
   -3.7313   14.9595    0.0000 C   0  0  0  0  0  0  0  0  0  0  0  0
   -3.4598   12.3756    0.0000 C   0  0  0  0  0  0  0  0  0  0  0  0
  1  2  1  0
  2  3  1  0
  3  4  2  0
  3  5  1  0
  6  5  1  1
  6  7  1  0
  7  8  1  0
  7  9  1  0
  6 10  1  0
 10 11  2  0
 10 12  1  0
 12 13  1  0
 13 14  1  0
 14 15  1  0
 15 16  1  0
 14 17  1  0
 17 18  1  0
 18 19  1  6
 19 20  2  0
 20 21  1  0
 21 22  2  0
 22 23  1  0
 21 24  1  0
 24 25  2  0
 25 26  1  0
 26 27  2  0
 27 28  1  0
 28 29  2  0
 29 30  1  0
 30 31  2  0
 31 32  1  0
 32 33  2  0
 33 34  1  0
 34 35  1  0
 34 36  1  0
 34 37  1  0
 37 38  2  0
 31 39  1  0
 39 40  2  0
 40 41  1  0
 41 42  2  0
 42 43  1  0
 43 44  1  0
 44 45  2  0
 45 46  1  0
 46 47  2  0
 48 44  1  6
 48 49  1  0
 49 50  1  1
 50 51  1  0
 52 51  1  1
 52 53  1  0
 52 54  1  0
 54 55  1  0
 55 56  2  0
 55 57  1  0
 57 58  1  1
 58 59  1  0
 59 60  2  0
 59 61  1  0
 61 62  1  0
 57 63  1  0
 63 64  1  0
 63 65  1  0
 18 12  1  0
 16 14  1  0
 23 19  1  0
 38 24  1  0
 37 27  1  0
 33 28  1  0
 47 39  1  0
 46 42  1  0
 54 48  1  0
 53 49  1  0
M  END
$$$$
1623950
     RDKit          2D

 65 70  0  0  0  0  0  0  0  0999 V2000
    0.0395  -13.3875    0.0000 C   0  0  0  0  0  0  0  0  0  0  0  0
    0.5030  -11.9609    0.0000 O   0  0  0  0  0  0  0  0  0  0  0  0
   -0.5007  -10.8462    0.0000 C   0  0  0  0  0  0  0  0  0  0  0  0
   -1.9679  -11.1581    0.0000 O   0  0  0  0  0  0  0  0  0  0  0  0
   -0.0372   -9.4196    0.0000 N   0  0  0  0  0  0  0  0  0  0  0  0
   -1.0409   -8.3049    0.0000 C   0  0  0  0  0  0  0  0  0  0  0  0
   -2.5081   -8.6168    0.0000 C   0  0  0  0  0  0  0  0  0  0  0  0
   -2.9716  -10.0434    0.0000 C   0  0  0  0  0  0  0  0  0  0  0  0
   -3.5118   -7.5021    0.0000 C   0  0  0  0  0  0  0  0  0  0  0  0
   -0.5773   -6.8783    0.0000 C   0  0  0  0  0  0  0  0  0  0  0  0
   -1.5810   -5.7636    0.0000 O   0  0  0  0  0  0  0  0  0  0  0  0
    0.8899   -6.5665    0.0000 N   0  0  0  0  0  0  0  0  0  0  0  0
    2.0046   -7.5702    0.0000 C   0  0  0  0  0  0  0  0  0  0  0  0
    3.3037   -6.8202    0.0000 C   0  0  0  0  0  0  0  0  0  0  0  0
    2.9918   -5.3529    0.0000 C   0  0  0  0  0  0  0  0  0  0  0  0
    1.5000   -5.1962    0.0000 C   0  0  0  0  0  0  0  0  0  0  0  0
    0.7500   -3.8971    0.0000 C   0  0  0  0  0  0  0  0  0  0  0  0
   -0.7500   -3.8971    0.0000 O   0  0  0  0  0  0  0  0  0  0  0  0
    1.5000   -2.5981    0.0000 N   0  0  0  0  0  0  0  0  0  0  0  0
    0.7500   -1.2990    0.0000 C   0  0  0  0  0  0  0  0  0  0  0  0
    1.5000    0.0000    0.0000 C   0  0  0  0  0  0  0  0  0  0  0  0
    0.7500    1.2990    0.0000 C   0  0  0  0  0  0  0  0  0  0  0  0
   -0.7500    1.2990    0.0000 C   0  0  0  0  0  0  0  0  0  0  0  0
   -1.5000    0.0000    0.0000 C   0  0  0  0  0  0  0  0  0  0  0  0
   -0.7500   -1.2990    0.0000 C   0  0  0  0  0  0  0  0  0  0  0  0
   -1.5000    2.5981    0.0000 C   0  0  0  0  0  0  0  0  0  0  0  0
   -2.9918    2.7549    0.0000 C   0  0  0  0  0  0  0  0  0  0  0  0
   -3.3037    4.2221    0.0000 C   0  0  0  0  0  0  0  0  0  0  0  0
   -2.0046    4.9721    0.0000 C   0  0  0  0  0  0  0  0  0  0  0  0
   -0.8899    3.9684    0.0000 N   0  0  0  0  0  0  0  0  0  0  0  0
    0.5773    4.2803    0.0000 C   0  0  0  0  0  0  0  0  0  0  0  0
    1.5810    3.1655    0.0000 C   0  0  0  0  0  0  0  0  0  0  0  0
    3.0482    3.4774    0.0000 C   0  0  0  0  0  0  0  0  0  0  0  0
    3.5118    4.9040    0.0000 C   0  0  0  0  0  0  0  0  0  0  0  0
    2.5081    6.0187    0.0000 C   0  0  0  0  0  0  0  0  0  0  0  0
    1.0409    5.7068    0.0000 C   0  0  0  0  0  0  0  0  0  0  0  0
    4.9790    5.2159    0.0000 C   0  0  0  0  0  0  0  0  0  0  0  0
    5.2909    3.7486    0.0000 C   0  0  0  0  0  0  0  0  0  0  0  0
    4.6671    6.6831    0.0000 C   0  0  0  0  0  0  0  0  0  0  0  0
    6.4462    5.5277    0.0000 C   0  0  0  0  0  0  0  0  0  0  0  0
   -1.8478    6.4639    0.0000 C   0  0  0  0  0  0  0  0  0  0  0  0
   -0.4775    7.0740    0.0000 C   0  0  0  0  0  0  0  0  0  0  0  0
   -0.3207    8.5658    0.0000 C   0  0  0  0  0  0  0  0  0  0  0  0
   -1.5342    9.4474    0.0000 C   0  0  0  0  0  0  0  0  0  0  0  0
   -1.3774   10.9392    0.0000 N   0  0  0  0  0  0  0  0  0  0  0  0
   -0.0071   11.5493    0.0000 C   0  0  0  0  0  0  0  0  0  0  0  0
    1.2064   10.6676    0.0000 O   0  0  0  0  0  0  0  0  0  0  0  0
    0.1497   13.0411    0.0000 C   0  0  0  0  0  0  0  0  0  0  0  0
   -0.9650   14.0448    0.0000 C   0  0  0  0  0  0  0  0  0  0  0  0
   -0.3549   15.4151    0.0000 C   0  0  0  0  0  0  0  0  0  0  0  0
    1.1368   15.2583    0.0000 C   0  0  0  0  0  0  0  0  0  0  0  0
    1.4487   13.7911    0.0000 N   0  0  0  0  0  0  0  0  0  0  0  0
    2.8190   13.1810    0.0000 C   0  0  0  0  0  0  0  0  0  0  0  0
    2.9758   11.6892    0.0000 O   0  0  0  0  0  0  0  0  0  0  0  0
    4.0326   14.0627    0.0000 C   0  0  0  0  0  0  0  0  0  0  0  0
    3.8758   15.5545    0.0000 N   0  0  0  0  0  0  0  0  0  0  0  0
    5.0893   16.4361    0.0000 C   0  0  0  0  0  0  0  0  0  0  0  0
    6.4596   15.8260    0.0000 O   0  0  0  0  0  0  0  0  0  0  0  0
    4.9325   17.9279    0.0000 O   0  0  0  0  0  0  0  0  0  0  0  0
    6.1460   18.8096    0.0000 C   0  0  0  0  0  0  0  0  0  0  0  0
    5.4029   13.4526    0.0000 C   0  0  0  0  0  0  0  0  0  0  0  0
    6.6164   14.3343    0.0000 C   0  0  0  0  0  0  0  0  0  0  0  0
    5.5597   11.9608    0.0000 C   0  0  0  0  0  0  0  0  0  0  0  0
   -2.9046    8.8373    0.0000 C   0  0  0  0  0  0  0  0  0  0  0  0
   -3.0613    7.3456    0.0000 C   0  0  0  0  0  0  0  0  0  0  0  0
  1  2  1  0
  2  3  1  0
  3  4  2  0
  3  5  1  0
  6  5  1  1
  6  7  1  0
  7  8  1  0
  7  9  1  0
  6 10  1  0
 10 11  2  0
 10 12  1  0
 12 13  1  0
 13 14  1  0
 14 15  1  0
 15 16  1  0
 16 17  1  6
 17 18  2  0
 17 19  1  0
 19 20  1  0
 20 21  2  0
 21 22  1  0
 22 23  2  0
 23 24  1  0
 24 25  2  0
 26 23  1  6
 26 27  1  0
 27 28  1  0
 28 29  1  0
 29 30  1  0
 30 31  1  0
 31 32  2  0
 32 33  1  0
 33 34  2  0
 34 35  1  0
 35 36  2  0
 34 37  1  0
 37 38  1  0
 37 39  1  0
 37 40  1  0
 29 41  1  1
 41 42  2  0
 42 43  1  0
 43 44  2  0
 44 45  1  0
 45 46  1  0
 46 47  2  0
 48 46  1  6
 48 49  1  0
 49 50  1  0
 50 51  1  0
 51 52  1  0
 52 53  1  0
 53 54  2  0
 53 55  1  0
 55 56  1  1
 56 57  1  0
 57 58  2  0
 57 59  1  0
 59 60  1  0
 55 61  1  0
 61 62  1  0
 61 63  1  0
 44 64  1  0
 64 65  2  0
 16 12  1  0
 25 20  1  0
 30 26  1  0
 36 31  1  0
 65 41  1  0
 52 48  1  0
M  END
$$$$
1592332
     RDKit          2D

 65 73  0  0  0  0  0  0  0  0999 V2000
   -4.1485  -12.2324    0.0000 C   0  0  0  0  0  0  0  0  0  0  0  0
   -2.9350  -11.3507    0.0000 O   0  0  0  0  0  0  0  0  0  0  0  0
   -3.0918   -9.8589    0.0000 C   0  0  0  0  0  0  0  0  0  0  0  0
   -4.4621   -9.2488    0.0000 O   0  0  0  0  0  0  0  0  0  0  0  0
   -1.8783   -8.9772    0.0000 N   0  0  0  0  0  0  0  0  0  0  0  0
   -2.0351   -7.4854    0.0000 C   0  0  0  0  0  0  0  0  0  0  0  0
   -3.4054   -6.8753    0.0000 C   0  0  0  0  0  0  0  0  0  0  0  0
   -4.6189   -7.7570    0.0000 C   0  0  0  0  0  0  0  0  0  0  0  0
   -3.5622   -5.3836    0.0000 C   0  0  0  0  0  0  0  0  0  0  0  0
   -0.8215   -6.6038    0.0000 C   0  0  0  0  0  0  0  0  0  0  0  0
   -0.9783   -5.1120    0.0000 O   0  0  0  0  0  0  0  0  0  0  0  0
    0.5488   -7.2139    0.0000 N   0  0  0  0  0  0  0  0  0  0  0  0
    0.8606   -8.6811    0.0000 C   0  0  0  0  0  0  0  0  0  0  0  0
    2.3524   -8.8379    0.0000 C   0  0  0  0  0  0  0  0  0  0  0  0
    2.9625   -7.4676    0.0000 C   0  0  0  0  0  0  0  0  0  0  0  0
    1.8478   -6.4639    0.0000 C   0  0  0  0  0  0  0  0  0  0  0  0
    2.0046   -4.9721    0.0000 C   0  0  0  0  0  0  0  0  0  0  0  0
    0.8899   -3.9684    0.0000 N   0  0  0  0  0  0  0  0  0  0  0  0
    1.5000   -2.5981    0.0000 C   0  0  0  0  0  0  0  0  0  0  0  0
    2.9918   -2.7549    0.0000 C   0  0  0  0  0  0  0  0  0  0  0  0
    3.3037   -4.2221    0.0000 N   0  0  0  0  0  0  0  0  0  0  0  0
    0.7500   -1.2990    0.0000 C   0  0  0  0  0  0  0  0  0  0  0  0
    1.5000    0.0000    0.0000 C   0  0  0  0  0  0  0  0  0  0  0  0
    0.7500    1.2990    0.0000 C   0  0  0  0  0  0  0  0  0  0  0  0
   -0.7500    1.2990    0.0000 C   0  0  0  0  0  0  0  0  0  0  0  0
   -1.5000    0.0000    0.0000 C   0  0  0  0  0  0  0  0  0  0  0  0
   -3.0000    0.0000    0.0000 O   0  0  0  0  0  0  0  0  0  0  0  0
   -3.7500    1.2990    0.0000 C   0  0  0  0  0  0  0  0  0  0  0  0
   -5.2500    1.2990    0.0000 C   0  0  0  0  0  0  0  0  0  0  0  0
   -6.0000    2.5981    0.0000 C   0  0  0  0  0  0  0  0  0  0  0  0
   -7.5000    2.5981    0.0000 C   0  0  0  0  0  0  0  0  0  0  0  0
   -8.2500    1.2990    0.0000 C   0  0  0  0  0  0  0  0  0  0  0  0
   -7.5000    0.0000    0.0000 C   0  0  0  0  0  0  0  0  0  0  0  0
   -6.0000    0.0000    0.0000 C   0  0  0  0  0  0  0  0  0  0  0  0
   -3.0000    2.5981    0.0000 N   0  0  0  0  0  0  0  0  0  0  0  0
   -1.5000    2.5981    0.0000 C   0  0  0  0  0  0  0  0  0  0  0  0
   -1.0365    4.0247    0.0000 C   0  0  0  0  0  0  0  0  0  0  0  0
   -2.2500    4.9063    0.0000 C   0  0  0  0  0  0  0  0  0  0  0  0
   -2.4068    6.3981    0.0000 C   0  0  0  0  0  0  0  0  0  0  0  0
   -3.7771    7.0082    0.0000 C   0  0  0  0  0  0  0  0  0  0  0  0
   -4.9906    6.1265    0.0000 C   0  0  0  0  0  0  0  0  0  0  0  0
   -4.8338    4.6348    0.0000 C   0  0  0  0  0  0  0  0  0  0  0  0
   -3.4635    4.0247    0.0000 C   0  0  0  0  0  0  0  0  0  0  0  0
   -3.9339    8.5000    0.0000 C   0  0  0  0  0  0  0  0  0  0  0  0
   -5.2329    9.2500    0.0000 C   0  0  0  0  0  0  0  0  0  0  0  0
   -4.9211   10.7172    0.0000 N   0  0  0  0  0  0  0  0  0  0  0  0
   -3.4293   10.8740    0.0000 C   0  0  0  0  0  0  0  0  0  0  0  0
   -2.8192    9.5037    0.0000 N   0  0  0  0  0  0  0  0  0  0  0  0
   -2.6793   12.1731    0.0000 C   0  0  0  0  0  0  0  0  0  0  0  0
   -3.2894   13.5434    0.0000 C   0  0  0  0  0  0  0  0  0  0  0  0
   -2.1747   14.5471    0.0000 C   0  0  0  0  0  0  0  0  0  0  0  0
   -0.8756   13.7971    0.0000 C   0  0  0  0  0  0  0  0  0  0  0  0
   -1.1875   12.3299    0.0000 N   0  0  0  0  0  0  0  0  0  0  0  0
   -0.1838   11.2151    0.0000 C   0  0  0  0  0  0  0  0  0  0  0  0
   -0.6473    9.7886    0.0000 O   0  0  0  0  0  0  0  0  0  0  0  0
    1.2834   11.5270    0.0000 C   0  0  0  0  0  0  0  0  0  0  0  0
    1.7469   12.9536    0.0000 N   0  0  0  0  0  0  0  0  0  0  0  0
    3.2142   13.2655    0.0000 C   0  0  0  0  0  0  0  0  0  0  0  0
    4.2179   12.1507    0.0000 O   0  0  0  0  0  0  0  0  0  0  0  0
    3.6777   14.6920    0.0000 O   0  0  0  0  0  0  0  0  0  0  0  0
    5.1449   15.0039    0.0000 C   0  0  0  0  0  0  0  0  0  0  0  0
    2.2871   10.4123    0.0000 C   0  0  0  0  0  0  0  0  0  0  0  0
    3.7543   10.7242    0.0000 C   0  0  0  0  0  0  0  0  0  0  0  0
    1.8236    8.9857    0.0000 C   0  0  0  0  0  0  0  0  0  0  0  0
   -0.7500   -1.2990    0.0000 C   0  0  0  0  0  0  0  0  0  0  0  0
  1  2  1  0
  2  3  1  0
  3  4  2  0
  3  5  1  0
  6  5  1  1
  6  7  1  0
  7  8  1  0
  7  9  1  0
  6 10  1  0
 10 11  2  0
 10 12  1  0
 12 13  1  0
 13 14  1  0
 14 15  1  0
 15 16  1  0
 16 17  1  6
 17 18  2  0
 18 19  1  0
 19 20  2  0
 20 21  1  0
 19 22  1  0
 22 23  2  0
 23 24  1  0
 24 25  2  0
 25 26  1  0
 26 27  1  0
 27 28  1  0
 28 29  1  1
 29 30  2  0
 30 31  1  0
 31 32  2  0
 32 33  1  0
 33 34  2  0
 28 35  1  0
 35 36  1  0
 36 37  2  0
 37 38  1  0
 38 39  2  0
 39 40  1  0
 40 41  2  0
 41 42  1  0
 42 43  2  0
 40 44  1  0
 44 45  2  0
 45 46  1  0
 46 47  1  0
 47 48  2  0
 49 47  1  6
 49 50  1  0
 50 51  1  0
 51 52  1  0
 52 53  1  0
 53 54  1  0
 54 55  2  0
 54 56  1  0
 56 57  1  1
 57 58  1  0
 58 59  2  0
 58 60  1  0
 60 61  1  0
 56 62  1  0
 62 63  1  0
 62 64  1  0
 26 65  2  0
 16 12  1  0
 21 17  1  0
 65 22  1  0
 36 25  1  0
 34 29  1  0
 43 35  1  0
 43 38  1  0
 48 44  1  0
 53 49  1  0
M  END
$$$$
1339281
     RDKit          2D

 54 59  0  0  0  0  0  0  0  0999 V2000
    8.3072  -12.3176    0.0000 C   0  0  0  0  0  0  0  0  0  0  0  0
    7.8436  -10.8910    0.0000 O   0  0  0  0  0  0  0  0  0  0  0  0
    6.3764  -10.5792    0.0000 C   0  0  0  0  0  0  0  0  0  0  0  0
    5.3727  -11.6939    0.0000 O   0  0  0  0  0  0  0  0  0  0  0  0
    5.9129   -9.1526    0.0000 N   0  0  0  0  0  0  0  0  0  0  0  0
    4.4457   -8.8407    0.0000 C   0  0  0  0  0  0  0  0  0  0  0  0
    3.4420   -9.9554    0.0000 C   0  0  0  0  0  0  0  0  0  0  0  0
    3.9055  -11.3820    0.0000 C   0  0  0  0  0  0  0  0  0  0  0  0
    1.9747   -9.6436    0.0000 C   0  0  0  0  0  0  0  0  0  0  0  0
    3.9821   -7.4141    0.0000 C   0  0  0  0  0  0  0  0  0  0  0  0
    2.5149   -7.1023    0.0000 O   0  0  0  0  0  0  0  0  0  0  0  0
    4.9858   -6.2994    0.0000 N   0  0  0  0  0  0  0  0  0  0  0  0
    6.4776   -6.4562    0.0000 C   0  0  0  0  0  0  0  0  0  0  0  0
    7.0877   -5.0859    0.0000 C   0  0  0  0  0  0  0  0  0  0  0  0
    5.9730   -4.0822    0.0000 C   0  0  0  0  0  0  0  0  0  0  0  0
    4.6740   -4.8322    0.0000 C   0  0  0  0  0  0  0  0  0  0  0  0
    3.3037   -4.2221    0.0000 C   0  0  0  0  0  0  0  0  0  0  0  0
    2.0046   -4.9721    0.0000 N   0  0  0  0  0  0  0  0  0  0  0  0
    0.8899   -3.9684    0.0000 C   0  0  0  0  0  0  0  0  0  0  0  0
    1.5000   -2.5981    0.0000 C   0  0  0  0  0  0  0  0  0  0  0  0
    2.9918   -2.7549    0.0000 N   0  0  0  0  0  0  0  0  0  0  0  0
    0.7500   -1.2990    0.0000 C   0  0  0  0  0  0  0  0  0  0  0  0
    1.5000    0.0000    0.0000 C   0  0  0  0  0  0  0  0  0  0  0  0
    0.7500    1.2990    0.0000 C   0  0  0  0  0  0  0  0  0  0  0  0
   -0.7500    1.2990    0.0000 C   0  0  0  0  0  0  0  0  0  0  0  0
   -1.5000    0.0000    0.0000 C   0  0  0  0  0  0  0  0  0  0  0  0
   -0.7500   -1.2990    0.0000 C   0  0  0  0  0  0  0  0  0  0  0  0
   -1.5000    2.5981    0.0000 C   0  0  0  0  0  0  0  0  0  0  0  0
   -0.7500    3.8971    0.0000 C   0  0  0  0  0  0  0  0  0  0  0  0
   -1.5000    5.1962    0.0000 C   0  0  0  0  0  0  0  0  0  0  0  0
   -3.0000    5.1962    0.0000 C   0  0  0  0  0  0  0  0  0  0  0  0
   -3.7500    3.8971    0.0000 C   0  0  0  0  0  0  0  0  0  0  0  0
   -3.0000    2.5981    0.0000 C   0  0  0  0  0  0  0  0  0  0  0  0
   -3.7500    6.4952    0.0000 C   0  0  0  0  0  0  0  0  0  0  0  0
   -5.2418    6.6520    0.0000 C   0  0  0  0  0  0  0  0  0  0  0  0
   -5.5537    8.1192    0.0000 N   0  0  0  0  0  0  0  0  0  0  0  0
   -4.2546    8.8692    0.0000 C   0  0  0  0  0  0  0  0  0  0  0  0
   -3.1399    7.8655    0.0000 N   0  0  0  0  0  0  0  0  0  0  0  0
   -4.0978   10.3610    0.0000 C   0  0  0  0  0  0  0  0  0  0  0  0
   -5.2125   11.3647    0.0000 C   0  0  0  0  0  0  0  0  0  0  0  0
   -4.6024   12.7350    0.0000 C   0  0  0  0  0  0  0  0  0  0  0  0
   -3.1106   12.5782    0.0000 C   0  0  0  0  0  0  0  0  0  0  0  0
   -2.7988   11.1110    0.0000 N   0  0  0  0  0  0  0  0  0  0  0  0
   -1.4285   10.5009    0.0000 C   0  0  0  0  0  0  0  0  0  0  0  0
   -1.2717    9.0091    0.0000 O   0  0  0  0  0  0  0  0  0  0  0  0
   -0.2149   11.3826    0.0000 C   0  0  0  0  0  0  0  0  0  0  0  0
   -0.3717   12.8743    0.0000 N   0  0  0  0  0  0  0  0  0  0  0  0
    0.8418   13.7560    0.0000 C   0  0  0  0  0  0  0  0  0  0  0  0
    2.2121   13.1459    0.0000 O   0  0  0  0  0  0  0  0  0  0  0  0
    0.6850   15.2478    0.0000 O   0  0  0  0  0  0  0  0  0  0  0  0
    1.8985   16.1295    0.0000 C   0  0  0  0  0  0  0  0  0  0  0  0
    1.1554   10.7725    0.0000 C   0  0  0  0  0  0  0  0  0  0  0  0
    2.3689   11.6541    0.0000 C   0  0  0  0  0  0  0  0  0  0  0  0
    1.3122    9.2807    0.0000 C   0  0  0  0  0  0  0  0  0  0  0  0
  1  2  1  0
  2  3  1  0
  3  4  2  0
  3  5  1  0
  6  5  1  1
  6  7  1  0
  7  8  1  0
  7  9  1  0
  6 10  1  0
 10 11  2  0
 10 12  1  0
 12 13  1  0
 13 14  1  0
 14 15  1  0
 15 16  1  0
 16 17  1  6
 17 18  2  0
 18 19  1  0
 19 20  2  0
 20 21  1  0
 20 22  1  0
 22 23  2  0
 23 24  1  0
 24 25  2  0
 25 26  1  0
 26 27  2  0
 25 28  1  0
 28 29  2  0
 29 30  1  0
 30 31  2  0
 31 32  1  0
 32 33  2  0
 31 34  1  0
 34 35  2  0
 35 36  1  0
 36 37  2  0
 37 38  1  0
 39 37  1  6
 39 40  1  0
 40 41  1  0
 41 42  1  0
 42 43  1  0
 43 44  1  0
 44 45  2  0
 44 46  1  0
 46 47  1  1
 47 48  1  0
 48 49  2  0
 48 50  1  0
 50 51  1  0
 46 52  1  0
 52 53  1  0
 52 54  1  0
 16 12  1  0
 21 17  1  0
 27 22  1  0
 33 28  1  0
 38 34  1  0
 43 39  1  0
M  END
$$$$
188196
     RDKit          2D

 51 53  0  0  0  0  0  0  0  0999 V2000
    1.5000    2.5981    0.0000 C   0  0  0  0  0  0  0  0  0  0  0  0
    0.7500    1.2990    0.0000 O   0  0  0  0  0  0  0  0  0  0  0  0
    1.5000   -0.0000    0.0000 C   0  0  0  0  0  0  0  0  0  0  0  0
    3.0000    0.0000    0.0000 O   0  0  0  0  0  0  0  0  0  0  0  0
    0.7500   -1.2990    0.0000 N   0  0  0  0  0  0  0  0  0  0  0  0
    1.5000   -2.5981    0.0000 C   0  0  0  0  0  0  0  0  0  0  0  0
    0.7500   -3.8971    0.0000 C   0  0  0  0  0  0  0  0  0  0  0  0
    1.5000   -5.1962    0.0000 O   0  0  0  0  0  0  0  0  0  0  0  0
   -0.7500   -3.8971    0.0000 N   0  0  0  0  0  0  0  0  0  0  0  0
   -1.5000   -5.1962    0.0000 C   0  0  0  0  0  0  0  0  0  0  0  0
   -3.0000   -5.1962    0.0000 C   0  0  0  0  0  0  0  0  0  0  0  0
   -3.7500   -3.8971    0.0000 C   0  0  0  0  0  0  0  0  0  0  0  0
   -5.2500   -3.8971    0.0000 C   0  0  0  0  0  0  0  0  0  0  0  0
   -6.0000   -2.5981    0.0000 C   0  0  0  0  0  0  0  0  0  0  0  0
   -5.2500   -1.2990    0.0000 C   0  0  0  0  0  0  0  0  0  0  0  0
   -3.7500   -1.2990    0.0000 C   0  0  0  0  0  0  0  0  0  0  0  0
   -3.0000   -2.5981    0.0000 C   0  0  0  0  0  0  0  0  0  0  0  0
   -0.7500   -6.4952    0.0000 C   0  0  0  0  0  0  0  0  0  0  0  0
   -1.5000   -7.7942    0.0000 O   0  0  0  0  0  0  0  0  0  0  0  0
    0.7500   -6.4952    0.0000 C   0  0  0  0  0  0  0  0  0  0  0  0
    1.5000   -7.7942    0.0000 N   0  0  0  0  0  0  0  0  0  0  0  0
    0.7500   -9.0933    0.0000 C   0  0  0  0  0  0  0  0  0  0  0  0
    1.5000  -10.3923    0.0000 C   0  0  0  0  0  0  0  0  0  0  0  0
    0.7500  -11.6913    0.0000 C   0  0  0  0  0  0  0  0  0  0  0  0
    1.5000  -12.9904    0.0000 C   0  0  0  0  0  0  0  0  0  0  0  0
    3.0000  -12.9904    0.0000 C   0  0  0  0  0  0  0  0  0  0  0  0
    3.7500  -11.6913    0.0000 C   0  0  0  0  0  0  0  0  0  0  0  0
    3.0000  -10.3923    0.0000 C   0  0  0  0  0  0  0  0  0  0  0  0
    3.7500  -14.2894    0.0000 C   0  0  0  0  0  0  0  0  0  0  0  0
    3.0000  -15.5885    0.0000 C   0  0  0  0  0  0  0  0  0  0  0  0
    3.7500  -16.8875    0.0000 C   0  0  0  0  0  0  0  0  0  0  0  0
    5.2500  -16.8875    0.0000 C   0  0  0  0  0  0  0  0  0  0  0  0
    6.0000  -15.5885    0.0000 C   0  0  0  0  0  0  0  0  0  0  0  0
    5.2500  -14.2894    0.0000 N   0  0  0  0  0  0  0  0  0  0  0  0
    3.0000   -7.7942    0.0000 N   0  0  0  0  0  0  0  0  0  0  0  0
    3.7500   -6.4952    0.0000 C   0  0  0  0  0  0  0  0  0  0  0  0
    3.0000   -5.1962    0.0000 O   0  0  0  0  0  0  0  0  0  0  0  0
    5.2500   -6.4952    0.0000 C   0  0  0  0  0  0  0  0  0  0  0  0
    6.0000   -7.7942    0.0000 N   0  0  0  0  0  0  0  0  0  0  0  0
    7.5000   -7.7942    0.0000 C   0  0  0  0  0  0  0  0  0  0  0  0
    8.2500   -6.4952    0.0000 O   0  0  0  0  0  0  0  0  0  0  0  0
    8.2500   -9.0933    0.0000 O   0  0  0  0  0  0  0  0  0  0  0  0
    9.7500   -9.0933    0.0000 C   0  0  0  0  0  0  0  0  0  0  0  0
    6.0000   -5.1962    0.0000 C   0  0  0  0  0  0  0  0  0  0  0  0
    7.2990   -5.9462    0.0000 C   0  0  0  0  0  0  0  0  0  0  0  0
    4.7010   -4.4462    0.0000 C   0  0  0  0  0  0  0  0  0  0  0  0
    6.7500   -3.8971    0.0000 C   0  0  0  0  0  0  0  0  0  0  0  0
    3.0000   -2.5981    0.0000 C   0  0  0  0  0  0  0  0  0  0  0  0
    3.0000   -1.0981    0.0000 C   0  0  0  0  0  0  0  0  0  0  0  0
    3.0000   -4.0981    0.0000 C   0  0  0  0  0  0  0  0  0  0  0  0
    4.5000   -2.5981    0.0000 C   0  0  0  0  0  0  0  0  0  0  0  0
  1  2  1  0
  2  3  1  0
  3  4  2  0
  3  5  1  0
  6  5  1  1
  6  7  1  0
  7  8  2  0
  7  9  1  0
  9 10  1  0
 10 11  1  6
 11 12  1  0
 12 13  2  0
 13 14  1  0
 14 15  2  0
 15 16  1  0
 16 17  2  0
 10 18  1  0
 18 19  1  6
 18 20  1  0
 20 21  1  0
 21 22  1  0
 22 23  1  0
 23 24  2  0
 24 25  1  0
 25 26  2  0
 26 27  1  0
 27 28  2  0
 26 29  1  0
 29 30  2  0
 30 31  1  0
 31 32  2  0
 32 33  1  0
 33 34  2  0
 21 35  1  0
 35 36  1  0
 36 37  2  0
 36 38  1  0
 38 39  1  6
 39 40  1  0
 40 41  2  0
 40 42  1  0
 42 43  1  0
 38 44  1  0
 44 45  1  0
 44 46  1  0
 44 47  1  0
  6 48  1  0
 48 49  1  0
 48 50  1  0
 48 51  1  0
 17 12  1  0
 28 23  1  0
 34 29  1  0
M  END
$$$$
674629
     RDKit          2D

 56 57  0  0  0  0  0  0  0  0999 V2000
    1.5000    2.5981    0.0000 C   0  0  0  0  0  0  0  0  0  0  0  0
    0.7500    1.2990    0.0000 O   0  0  0  0  0  0  0  0  0  0  0  0
    1.5000   -0.0000    0.0000 C   0  0  0  0  0  0  0  0  0  0  0  0
    3.0000    0.0000    0.0000 O   0  0  0  0  0  0  0  0  0  0  0  0
    0.7500   -1.2990    0.0000 N   0  0  0  0  0  0  0  0  0  0  0  0
    1.5000   -2.5981    0.0000 C   0  0  0  0  0  0  0  0  0  0  0  0
    0.7500   -3.8971    0.0000 C   0  0  0  0  0  0  0  0  0  0  0  0
    1.5000   -5.1962    0.0000 O   0  0  0  0  0  0  0  0  0  0  0  0
   -0.7500   -3.8971    0.0000 N   0  0  0  0  0  0  0  0  0  0  0  0
   -1.5000   -5.1962    0.0000 C   0  0  0  0  0  0  0  0  0  0  0  0
   -3.0000   -5.1962    0.0000 C   0  0  0  0  0  0  0  0  0  0  0  0
   -3.7500   -3.8971    0.0000 C   0  0  0  0  0  0  0  0  0  0  0  0
   -5.2500   -3.8971    0.0000 C   0  0  0  0  0  0  0  0  0  0  0  0
   -6.0000   -2.5981    0.0000 C   0  0  0  0  0  0  0  0  0  0  0  0
   -5.2500   -1.2990    0.0000 C   0  0  0  0  0  0  0  0  0  0  0  0
   -3.7500   -1.2990    0.0000 C   0  0  0  0  0  0  0  0  0  0  0  0
   -3.0000   -2.5981    0.0000 C   0  0  0  0  0  0  0  0  0  0  0  0
   -0.7500   -6.4952    0.0000 C   0  0  0  0  0  0  0  0  0  0  0  0
   -1.5000   -7.7942    0.0000 O   0  0  0  0  0  0  0  0  0  0  0  0
    0.7500   -6.4952    0.0000 C   0  0  0  0  0  0  0  0  0  0  0  0
    1.5000   -7.7942    0.0000 N   0  0  0  0  0  0  0  0  0  0  0  0
    0.7500   -9.0933    0.0000 C   0  0  0  0  0  0  0  0  0  0  0  0
    1.5000  -10.3923    0.0000 C   0  0  0  0  0  0  0  0  0  0  0  0
    0.7500  -11.6913    0.0000 C   0  0  0  0  0  0  0  0  0  0  0  0
    1.5000  -12.9904    0.0000 C   0  0  0  0  0  0  0  0  0  0  0  0
    3.0000  -12.9904    0.0000 C   0  0  0  0  0  0  0  0  0  0  0  0
    3.7500  -11.6913    0.0000 C   0  0  0  0  0  0  0  0  0  0  0  0
    3.0000  -10.3923    0.0000 C   0  0  0  0  0  0  0  0  0  0  0  0
    3.7500  -14.2894    0.0000 C   0  0  0  0  0  0  0  0  0  0  0  0
    3.0000  -15.5885    0.0000 C   0  0  0  0  0  0  0  0  0  0  0  0
    3.7500  -16.8875    0.0000 C   0  0  0  0  0  0  0  0  0  0  0  0
    5.2500  -16.8875    0.0000 C   0  0  0  0  0  0  0  0  0  0  0  0
    6.0000  -15.5885    0.0000 C   0  0  0  0  0  0  0  0  0  0  0  0
    5.2500  -14.2894    0.0000 N   0  0  0  0  0  0  0  0  0  0  0  0
    3.0000   -7.7942    0.0000 N   0  0  0  0  0  0  0  0  0  0  0  0
    3.7500   -6.4952    0.0000 C   0  0  0  0  0  0  0  0  0  0  0  0
    3.0000   -5.1962    0.0000 O   0  0  0  0  0  0  0  0  0  0  0  0
    5.2500   -6.4952    0.0000 C   0  0  0  0  0  0  0  0  0  0  0  0
    6.0000   -7.7942    0.0000 N   0  0  0  0  0  0  0  0  0  0  0  0
    7.5000   -7.7942    0.0000 C   0  0  0  0  0  0  0  0  0  0  0  0
    8.2500   -6.4952    0.0000 O   0  0  0  0  0  0  0  0  0  0  0  0
    8.2500   -9.0933    0.0000 O   0  0  0  0  0  0  0  0  0  0  0  0
    9.7500   -9.0933    0.0000 C   0  0  0  0  0  0  0  0  0  0  0  0
    6.0000   -5.1962    0.0000 C   0  0  0  0  0  0  0  0  0  0  0  0
    7.2990   -5.9462    0.0000 C   0  0  0  0  0  0  0  0  0  0  0  0
    4.7010   -4.4462    0.0000 C   0  0  0  0  0  0  0  0  0  0  0  0
    6.7500   -3.8971    0.0000 C   0  0  0  0  0  0  0  0  0  0  0  0
    3.0000   -2.5981    0.0000 C   0  0  0  0  0  0  0  0  0  0  0  0
    3.0000   -1.0981    0.0000 C   0  0  0  0  0  0  0  0  0  0  0  0
    3.0000   -4.0981    0.0000 C   0  0  0  0  0  0  0  0  0  0  0  0
    4.5000   -2.5981    0.0000 C   0  0  0  0  0  0  0  0  0  0  0  0
   10.7500    0.0000    0.0000 O   0  0  0  0  0  0  0  0  0  0  0  0
   12.0490    0.7500    0.0000 S   0  0  0  0  0  0  0  0  0  0  0  0
   12.7990   -0.5490    0.0000 O   0  0  0  0  0  0  0  0  0  0  0  0
   11.2990    2.0490    0.0000 O   0  0  0  0  0  0  0  0  0  0  0  0
   13.3481    1.5000    0.0000 O   0  0  0  0  0  0  0  0  0  0  0  0
  1  2  1  0
  2  3  1  0
  3  4  2  0
  3  5  1  0
  6  5  1  1
  6  7  1  0
  7  8  2  0
  7  9  1  0
  9 10  1  0
 10 11  1  6
 11 12  1  0
 12 13  2  0
 13 14  1  0
 14 15  2  0
 15 16  1  0
 16 17  2  0
 10 18  1  0
 18 19  1  6
 18 20  1  0
 20 21  1  0
 21 22  1  0
 22 23  1  0
 23 24  2  0
 24 25  1  0
 25 26  2  0
 26 27  1  0
 27 28  2  0
 26 29  1  0
 29 30  2  0
 30 31  1  0
 31 32  2  0
 32 33  1  0
 33 34  2  0
 21 35  1  0
 35 36  1  0
 36 37  2  0
 36 38  1  0
 38 39  1  6
 39 40  1  0
 40 41  2  0
 40 42  1  0
 42 43  1  0
 38 44  1  0
 44 45  1  0
 44 46  1  0
 44 47  1  0
  6 48  1  0
 48 49  1  0
 48 50  1  0
 48 51  1  0
 52 53  1  0
 53 54  2  0
 53 55  2  0
 53 56  1  0
 17 12  1  0
 28 23  1  0
 34 29  1  0
M  END
$$$$
598402
     RDKit          2D

 21 23  0  0  0  0  0  0  0  0999 V2000
   -6.9177    4.3013    0.0000 C   0  0  0  0  0  0  0  0  0  0  0  0
   -5.4912    4.7648    0.0000 O   0  0  0  0  0  0  0  0  0  0  0  0
   -4.3764    3.7611    0.0000 C   0  0  0  0  0  0  0  0  0  0  0  0
   -4.6883    2.2939    0.0000 O   0  0  0  0  0  0  0  0  0  0  0  0
   -2.9499    4.2246    0.0000 C   0  0  0  0  0  0  0  0  0  0  0  0
   -1.8351    3.2209    0.0000 N   0  0  0  0  0  0  0  0  0  0  0  0
   -0.4086    3.6844    0.0000 C   0  0  0  0  0  0  0  0  0  0  0  0
    0.7062    2.6807    0.0000 C   0  0  0  0  0  0  0  0  0  0  0  0
    0.3943    1.2135    0.0000 C   0  0  0  0  0  0  0  0  0  0  0  0
    1.2760    0.0000    0.0000 S   0  0  0  0  0  0  0  0  0  0  0  0
    0.3943   -1.2135    0.0000 C   0  0  0  0  0  0  0  0  0  0  0  0
   -1.0323   -0.7500    0.0000 C   0  0  0  0  0  0  0  0  0  0  0  0
   -1.0323    0.7500    0.0000 C   0  0  0  0  0  0  0  0  0  0  0  0
   -2.1470    1.7537    0.0000 C   0  0  0  0  0  0  0  0  0  0  0  0
   -2.6380    5.6918    0.0000 C   0  0  0  0  0  0  0  0  0  0  0  0
   -1.2114    6.1554    0.0000 C   0  0  0  0  0  0  0  0  0  0  0  0
   -0.8995    7.6226    0.0000 C   0  0  0  0  0  0  0  0  0  0  0  0
   -2.0143    8.6263    0.0000 C   0  0  0  0  0  0  0  0  0  0  0  0
   -3.4408    8.1628    0.0000 C   0  0  0  0  0  0  0  0  0  0  0  0
   -3.7527    6.6955    0.0000 C   0  0  0  0  0  0  0  0  0  0  0  0
   -5.1793    6.2320    0.0000 Cl  0  0  0  0  0  0  0  0  0  0  0  0
  1  2  1  0
  2  3  1  0
  3  4  2  0
  3  5  1  0
  5  6  1  6
  6  7  1  0
  7  8  1  0
  8  9  1  0
  9 10  1  0
 10 11  1  0
 11 12  2  0
 12 13  1  0
 13 14  1  0
  5 15  1  0
 15 16  2  0
 16 17  1  0
 17 18  2  0
 18 19  1  0
 19 20  2  0
 20 21  1  0
 14  6  1  0
 13  9  2  0
 20 15  1  0
M  END
$$$$
630396
     RDKit          2D

 26 27  0  0  0  0  0  0  0  0999 V2000
   -6.9177    4.3013    0.0000 C   0  0  0  0  0  0  0  0  0  0  0  0
   -5.4912    4.7648    0.0000 O   0  0  0  0  0  0  0  0  0  0  0  0
   -4.3764    3.7611    0.0000 C   0  0  0  0  0  0  0  0  0  0  0  0
   -4.6883    2.2939    0.0000 O   0  0  0  0  0  0  0  0  0  0  0  0
   -2.9499    4.2246    0.0000 C   0  0  0  0  0  0  0  0  0  0  0  0
   -1.8351    3.2209    0.0000 N   0  0  0  0  0  0  0  0  0  0  0  0
   -0.4086    3.6844    0.0000 C   0  0  0  0  0  0  0  0  0  0  0  0
    0.7062    2.6807    0.0000 C   0  0  0  0  0  0  0  0  0  0  0  0
    0.3943    1.2135    0.0000 C   0  0  0  0  0  0  0  0  0  0  0  0
    1.2760    0.0000    0.0000 S   0  0  0  0  0  0  0  0  0  0  0  0
    0.3943   -1.2135    0.0000 C   0  0  0  0  0  0  0  0  0  0  0  0
   -1.0323   -0.7500    0.0000 C   0  0  0  0  0  0  0  0  0  0  0  0
   -1.0323    0.7500    0.0000 C   0  0  0  0  0  0  0  0  0  0  0  0
   -2.1470    1.7537    0.0000 C   0  0  0  0  0  0  0  0  0  0  0  0
   -2.6380    5.6918    0.0000 C   0  0  0  0  0  0  0  0  0  0  0  0
   -1.2114    6.1554    0.0000 C   0  0  0  0  0  0  0  0  0  0  0  0
   -0.8995    7.6226    0.0000 C   0  0  0  0  0  0  0  0  0  0  0  0
   -2.0143    8.6263    0.0000 C   0  0  0  0  0  0  0  0  0  0  0  0
   -3.4408    8.1628    0.0000 C   0  0  0  0  0  0  0  0  0  0  0  0
   -3.7527    6.6955    0.0000 C   0  0  0  0  0  0  0  0  0  0  0  0
   -5.1793    6.2320    0.0000 Cl  0  0  0  0  0  0  0  0  0  0  0  0
    2.2760    0.0000    0.0000 O   0  0  0  0  0  0  0  0  0  0  0  0
    3.5750    0.7500    0.0000 S   0  0  0  0  0  0  0  0  0  0  0  0
    4.3250   -0.5490    0.0000 O   0  0  0  0  0  0  0  0  0  0  0  0
    2.8250    2.0490    0.0000 O   0  0  0  0  0  0  0  0  0  0  0  0
    4.8741    1.5000    0.0000 O   0  0  0  0  0  0  0  0  0  0  0  0
  1  2  1  0
  2  3  1  0
  3  4  2  0
  3  5  1  0
  5  6  1  6
  6  7  1  0
  7  8  1  0
  8  9  1  0
  9 10  1  0
 10 11  1  0
 11 12  2  0
 12 13  1  0
 13 14  1  0
  5 15  1  0
 15 16  2  0
 16 17  1  0
 17 18  2  0
 18 19  1  0
 19 20  2  0
 20 21  1  0
 22 23  1  0
 23 24  2  0
 23 25  2  0
 23 26  1  0
 14  6  1  0
 13  9  2  0
 20 15  1  0
M  END
$$$$
57397
     RDKit          2D

 17 18  0  0  0  0  0  0  0  0999 V2000
    5.2500   -3.8971    0.0000 C   0  0  0  0  0  0  0  0  0  0  0  0
    3.7500   -3.8971    0.0000 O   0  0  0  0  0  0  0  0  0  0  0  0
    3.0000   -2.5981    0.0000 C   0  0  0  0  0  0  0  0  0  0  0  0
    3.7500   -1.2990    0.0000 O   0  0  0  0  0  0  0  0  0  0  0  0
    1.5000   -2.5981    0.0000 C   0  0  0  0  0  0  0  0  0  0  0  0
    0.7500   -1.2990    0.0000 C   0  0  0  0  0  0  0  0  0  0  0  0
    1.5000    0.0000    0.0000 C   0  0  0  0  0  0  0  0  0  0  0  0
    0.7500    1.2990    0.0000 C   0  0  0  0  0  0  0  0  0  0  0  0
   -0.7500    1.2990    0.0000 C   0  0  0  0  0  0  0  0  0  0  0  0
   -1.5000    0.0000    0.0000 C   0  0  0  0  0  0  0  0  0  0  0  0
   -0.7500   -1.2990    0.0000 N   0  0  0  0  0  0  0  0  0  0  0  0
    0.7500   -3.8971    0.0000 C   0  0  0  0  0  0  0  0  0  0  0  0
   -0.7500   -3.8971    0.0000 C   0  0  0  0  0  0  0  0  0  0  0  0
   -1.5000   -5.1962    0.0000 C   0  0  0  0  0  0  0  0  0  0  0  0
   -0.7500   -6.4952    0.0000 C   0  0  0  0  0  0  0  0  0  0  0  0
    0.7500   -6.4952    0.0000 C   0  0  0  0  0  0  0  0  0  0  0  0
    1.5000   -5.1962    0.0000 C   0  0  0  0  0  0  0  0  0  0  0  0
  1  2  1  0
  2  3  1  0
  3  4  2  0
  5  3  1  6
  5  6  1  0
  6  7  1  6
  7  8  1  0
  8  9  1  0
  9 10  1  0
 10 11  1  0
  5 12  1  0
 12 13  2  0
 13 14  1  0
 14 15  2  0
 15 16  1  0
 16 17  2  0
 11  6  1  0
 17 12  1  0
M  END
$$$$
626453
     RDKit          2D

 30 35  0  0  0  0  0  0  0  0999 V2000
    4.5311    7.1244    0.0000 C   0  0  0  0  0  0  0  0  0  0  0  0
    3.0393    7.2812    0.0000 O   0  0  0  0  0  0  0  0  0  0  0  0
    2.1577    6.0676    0.0000 C   0  0  0  0  0  0  0  0  0  0  0  0
    2.7678    4.6973    0.0000 O   0  0  0  0  0  0  0  0  0  0  0  0
    0.6659    6.2244    0.0000 C   0  0  0  0  0  0  0  0  0  0  0  0
    0.0558    7.5947    0.0000 C   0  0  0  0  0  0  0  0  0  0  0  0
   -1.4360    7.7515    0.0000 C   0  0  0  0  0  0  0  0  0  0  0  0
   -2.0461    9.1218    0.0000 C   0  0  0  0  0  0  0  0  0  0  0  0
   -3.5379    9.2786    0.0000 C   0  0  0  0  0  0  0  0  0  0  0  0
   -4.1480   10.6490    0.0000 O   0  0  0  0  0  0  0  0  0  0  0  0
   -4.4196    8.0651    0.0000 C   0  0  0  0  0  0  0  0  0  0  0  0
   -3.8095    6.6948    0.0000 C   0  0  0  0  0  0  0  0  0  0  0  0
   -2.3177    6.5380    0.0000 C   0  0  0  0  0  0  0  0  0  0  0  0
   -2.9278    7.9083    0.0000 C   0  0  0  0  0  0  0  0  0  0  0  0
   -1.7076    5.1677    0.0000 C   0  0  0  0  0  0  0  0  0  0  0  0
   -3.1994    5.3245    0.0000 O   0  0  0  0  0  0  0  0  0  0  0  0
   -2.5893    3.9542    0.0000 C   0  0  0  0  0  0  0  0  0  0  0  0
   -1.9792    2.5838    0.0000 C   0  0  0  0  0  0  0  0  0  0  0  0
   -0.4874    2.4271    0.0000 C   0  0  0  0  0  0  0  0  0  0  0  0
    0.9798    2.7389    0.0000 C   0  0  0  0  0  0  0  0  0  0  0  0
    0.3943    3.6406    0.0000 C   0  0  0  0  0  0  0  0  0  0  0  0
    1.8209    3.1771    0.0000 C   0  0  0  0  0  0  0  0  0  0  0  0
    1.8209    1.6771    0.0000 C   0  0  0  0  0  0  0  0  0  0  0  0
    0.3943    1.2135    0.0000 C   0  0  0  0  0  0  0  0  0  0  0  0
    1.2760    0.0000    0.0000 C   0  0  0  0  0  0  0  0  0  0  0  0
    0.3943   -1.2135    0.0000 C   0  0  0  0  0  0  0  0  0  0  0  0
   -1.0323   -0.7500    0.0000 C   0  0  0  0  0  0  0  0  0  0  0  0
   -2.2458   -1.6317    0.0000 O   0  0  0  0  0  0  0  0  0  0  0  0
   -1.0323    0.7500    0.0000 O   0  0  0  0  0  0  0  0  0  0  0  0
   -0.2158    5.0109    0.0000 C   0  0  0  0  0  0  0  0  0  0  0  0
  1  2  1  0
  2  3  1  0
  3  4  2  0
  5  3  1  1
  5  6  1  0
  6  7  1  0
  7  8  2  0
  8  9  1  0
  9 10  2  0
  9 11  1  0
 11 12  1  0
 12 13  1  0
 13 14  1  6
 13 15  1  0
 15 16  1  1
 16 17  1  0
 17 18  1  1
 18 19  1  0
 19 20  1  6
 19 21  1  0
 21 22  1  6
 22 23  1  0
 24 23  1  6
 24 25  1  0
 25 26  1  0
 26 27  1  0
 27 28  2  0
 27 29  1  0
 21 30  1  0
 30  5  1  1
 13  7  1  0
 17 15  1  0
 30 15  1  0
 24 19  1  0
 29 24  1  0
M  END
$$$$
1379603
     RDKit          2D

 10  9  0  0  0  0  0  0  0  0999 V2000
   -3.0000   -2.5981    0.0000 C   0  0  0  0  0  0  0  0  0  0  0  0
   -2.2500   -1.2990    0.0000 O   0  0  0  0  0  0  0  0  0  0  0  0
   -0.7500   -1.2990    0.0000 C   0  0  0  0  0  0  0  0  0  0  0  0
    0.0000   -2.5981    0.0000 O   0  0  0  0  0  0  0  0  0  0  0  0
    0.0000    0.0000    0.0000 C   0  0  0  0  0  0  0  0  0  0  0  0
    1.5000    0.0000    0.0000 C   0  0  0  0  0  0  0  0  0  0  0  0
    2.2500    1.2990    0.0000 C   0  0  0  0  0  0  0  0  0  0  0  0
    1.5000    2.5981    0.0000 O   0  0  0  0  0  0  0  0  0  0  0  0
    3.7500    1.2990    0.0000 O   0  0  0  0  0  0  0  0  0  0  0  0
    4.5000    2.5981    0.0000 C   0  0  0  0  0  0  0  0  0  0  0  0
  1  2  1  0
  2  3  1  0
  3  4  2  0
  3  5  1  0
  5  6  2  0
  6  7  1  0
  7  8  2  0
  7  9  1  0
  9 10  1  0
M  END
$$$$
154051
     RDKit          2D

 28 30  0  0  0  0  0  0  0  0999 V2000
    3.7500   -6.4952    0.0000 C   0  0  0  0  0  0  0  0  0  0  0  0
    2.2500   -6.4952    0.0000 O   0  0  0  0  0  0  0  0  0  0  0  0
    1.5000   -5.1962    0.0000 C   0  0  0  0  0  0  0  0  0  0  0  0
    0.7500   -3.8971    0.0000 C   0  0  0  0  0  0  0  0  0  0  0  0
    1.5000   -2.5981    0.0000 O   0  0  0  0  0  0  0  0  0  0  0  0
    0.7500   -1.2990    0.0000 C   0  0  0  0  0  0  0  0  0  0  0  0
    1.5000   -0.0000    0.0000 N   0  0  0  0  0  0  0  0  0  0  0  0
    0.7500    1.2990    0.0000 C   0  0  0  0  0  0  0  0  0  0  0  0
    1.5000    2.5981    0.0000 C   0  0  0  0  0  0  0  0  0  0  0  0
   -0.7500    1.2990    0.0000 C   0  0  0  0  0  0  0  0  0  0  0  0
   -1.5000   -0.0000    0.0000 C   0  0  0  0  0  0  0  0  0  0  0  0
   -3.0000   -0.0000    0.0000 C   0  0  0  0  0  0  0  0  0  0  0  0
   -0.7500   -1.2990    0.0000 N   0  0  0  0  0  0  0  0  0  0  0  0
   -0.7500   -3.8971    0.0000 C   0  0  0  0  0  0  0  0  0  0  0  0
   -1.5000   -2.5981    0.0000 O   0  0  0  0  0  0  0  0  0  0  0  0
   -1.3038   -4.4705    0.0000 O   0  0  0  0  0  0  0  0  0  0  0  0
    2.7990   -4.4462    0.0000 C   0  0  0  0  0  0  0  0  0  0  0  0
    4.0981   -5.1962    0.0000 C   0  0  0  0  0  0  0  0  0  0  0  0
    5.3971   -4.4462    0.0000 C   0  0  0  0  0  0  0  0  0  0  0  0
    5.3971   -2.9462    0.0000 C   0  0  0  0  0  0  0  0  0  0  0  0
    4.0981   -2.1962    0.0000 C   0  0  0  0  0  0  0  0  0  0  0  0
    2.7990   -2.9462    0.0000 C   0  0  0  0  0  0  0  0  0  0  0  0
    0.2010   -5.9462    0.0000 C   0  0  0  0  0  0  0  0  0  0  0  0
    0.2010   -7.4462    0.0000 C   0  0  0  0  0  0  0  0  0  0  0  0
   -1.0981   -8.1962    0.0000 C   0  0  0  0  0  0  0  0  0  0  0  0
   -2.3971   -7.4462    0.0000 C   0  0  0  0  0  0  0  0  0  0  0  0
   -2.3971   -5.9462    0.0000 C   0  0  0  0  0  0  0  0  0  0  0  0
   -1.0981   -5.1962    0.0000 C   0  0  0  0  0  0  0  0  0  0  0  0
  1  2  1  0
  2  3  1  0
  3  4  1  0
  4  5  1  1
  5  6  1  0
  6  7  2  0
  7  8  1  0
  8  9  1  0
  8 10  2  0
 10 11  1  0
 11 12  1  0
 11 13  2  0
  4 14  1  0
 14 15  2  0
 14 16  1  0
  3 17  1  0
 17 18  2  0
 18 19  1  0
 19 20  2  0
 20 21  1  0
 21 22  2  0
  3 23  1  0
 23 24  2  0
 24 25  1  0
 25 26  2  0
 26 27  1  0
 27 28  2  0
 13  6  1  0
 22 17  1  0
 28 23  1  0
M  END
$$$$
16303
     RDKit          2D

 24 26  0  0  0  0  0  0  0  0999 V2000
    3.7500   -1.2990    0.0000 C   0  0  0  0  0  0  0  0  0  0  0  0
    3.0000    0.0000    0.0000 O   0  0  0  0  0  0  0  0  0  0  0  0
    1.5000    0.0000    0.0000 C   0  0  0  0  0  0  0  0  0  0  0  0
    0.7500   -1.2990    0.0000 C   0  0  0  0  0  0  0  0  0  0  0  0
   -0.7500   -1.2990    0.0000 C   0  0  0  0  0  0  0  0  0  0  0  0
   -1.5000   -2.5981    0.0000 O   0  0  0  0  0  0  0  0  0  0  0  0
   -1.5000    0.0000    0.0000 C   0  0  0  0  0  0  0  0  0  0  0  0
   -0.7500    1.2990    0.0000 C   0  0  0  0  0  0  0  0  0  0  0  0
   -1.5000    2.5981    0.0000 C   0  0  0  0  0  0  0  0  0  0  0  0
    0.7500    1.2990    0.0000 C   0  0  0  0  0  0  0  0  0  0  0  0
    0.1399    2.6694    0.0000 O   0  0  0  0  0  0  0  0  0  0  0  0
    1.2546    3.6731    0.0000 C   0  0  0  0  0  0  0  0  0  0  0  0
    1.2546    5.1731    0.0000 C   0  0  0  0  0  0  0  0  0  0  0  0
   -0.0444    5.9231    0.0000 Cl  0  0  0  0  0  0  0  0  0  0  0  0
    2.5537    5.9231    0.0000 C   0  0  0  0  0  0  0  0  0  0  0  0
    2.5537    7.4231    0.0000 O   0  0  0  0  0  0  0  0  0  0  0  0
    3.8527    8.1731    0.0000 C   0  0  0  0  0  0  0  0  0  0  0  0
    3.8527    5.1731    0.0000 C   0  0  0  0  0  0  0  0  0  0  0  0
    3.8527    3.6731    0.0000 C   0  0  0  0  0  0  0  0  0  0  0  0
    5.1517    2.9231    0.0000 O   0  0  0  0  0  0  0  0  0  0  0  0
    6.4508    3.6731    0.0000 C   0  0  0  0  0  0  0  0  0  0  0  0
    2.5537    2.9231    0.0000 C   0  0  0  0  0  0  0  0  0  0  0  0
    2.2418    1.4558    0.0000 C   0  0  0  0  0  0  0  0  0  0  0  0
    2.9761    0.9606    0.0000 O   0  0  0  0  0  0  0  0  0  0  0  0
  1  2  1  0
  2  3  1  0
  3  4  2  0
  4  5  1  0
  5  6  2  0
  5  7  1  0
  7  8  1  0
  8  9  1  1
  8 10  1  0
 10 11  1  6
 11 12  1  0
 12 13  2  0
 13 14  1  0
 13 15  1  0
 15 16  1  0
 16 17  1  0
 15 18  2  0
 18 19  1  0
 19 20  1  0
 20 21  1  0
 19 22  2  0
 22 23  1  0
 23 24  2  0
 10  3  1  0
 23 10  1  0
 22 12  1  0
M  END
$$$$
14440
     RDKit          2D

 29 31  0  0  0  0  0  0  0  0999 V2000
    3.9786   -1.2990    0.0000 C   0  0  0  0  0  0  0  0  0  0  0  0
    3.2286   -0.0000    0.0000 O   0  0  0  0  0  0  0  0  0  0  0  0
    1.7286    0.0000    0.0000 C   0  0  0  0  0  0  0  0  0  0  0  0
    1.0777    1.3515    0.0000 C   0  0  0  0  0  0  0  0  0  0  0  0
   -0.3846    1.6852    0.0000 C   0  0  0  0  0  0  0  0  0  0  0  0
   -1.5574    0.7500    0.0000 C   0  0  0  0  0  0  0  0  0  0  0  0
   -1.5574   -0.7500    0.0000 C   0  0  0  0  0  0  0  0  0  0  0  0
   -0.3846   -1.6852    0.0000 C   0  0  0  0  0  0  0  0  0  0  0  0
    1.0777   -1.3515    0.0000 C   0  0  0  0  0  0  0  0  0  0  0  0
    2.0130   -2.5242    0.0000 O   0  0  0  0  0  0  0  0  0  0  0  0
   -2.7301   -1.6852    0.0000 C   0  0  0  0  0  0  0  0  0  0  0  0
   -4.1925   -1.3515    0.0000 C   0  0  0  0  0  0  0  0  0  0  0  0
   -4.8434    0.0000    0.0000 C   0  0  0  0  0  0  0  0  0  0  0  0
   -4.1925    1.3515    0.0000 C   0  0  0  0  0  0  0  0  0  0  0  0
   -5.2128    2.4510    0.0000 C   0  0  0  0  0  0  0  0  0  0  0  0
   -4.7707    3.8844    0.0000 C   0  0  0  0  0  0  0  0  0  0  0  0
   -5.7909    4.9840    0.0000 O   0  0  0  0  0  0  0  0  0  0  0  0
   -5.3488    6.4173    0.0000 C   0  0  0  0  0  0  0  0  0  0  0  0
   -3.3083    4.2182    0.0000 C   0  0  0  0  0  0  0  0  0  0  0  0
   -2.8661    5.6515    0.0000 O   0  0  0  0  0  0  0  0  0  0  0  0
   -1.4037    5.9853    0.0000 C   0  0  0  0  0  0  0  0  0  0  0  0
   -2.2880    3.1186    0.0000 C   0  0  0  0  0  0  0  0  0  0  0  0
   -0.8256    3.4524    0.0000 O   0  0  0  0  0  0  0  0  0  0  0  0
   -0.3835    4.8857    0.0000 C   0  0  0  0  0  0  0  0  0  0  0  0
   -2.7301    1.6852    0.0000 C   0  0  0  0  0  0  0  0  0  0  0  0
   -2.3964   -3.1476    0.0000 N   0  0  0  0  0  0  0  0  0  0  0  0
   -3.4959   -4.1679    0.0000 C   0  0  0  0  0  0  0  0  0  0  0  0
   -4.9293   -3.7258    0.0000 O   0  0  0  0  0  0  0  0  0  0  0  0
   -3.1622   -5.6303    0.0000 C   0  0  0  0  0  0  0  0  0  0  0  0
  1  2  1  0
  2  3  1  0
  3  4  2  0
  4  5  1  0
  5  6  2  0
  6  7  1  0
  7  8  2  0
  8  9  1  0
  9 10  2  0
  7 11  1  0
 11 12  1  0
 12 13  1  0
 13 14  1  0
 14 15  2  0
 15 16  1  0
 16 17  1  0
 17 18  1  0
 16 19  2  0
 19 20  1  0
 20 21  1  0
 19 22  1  0
 22 23  1  0
 23 24  1  0
 22 25  2  0
 11 26  1  1
 26 27  1  0
 27 28  2  0
 27 29  1  0
  9  3  1  0
 25  6  1  0
 25 14  1  0
M  END
$$$$
68396
     RDKit          2D

 23 24  0  0  0  0  0  0  0  0999 V2000
    1.3299    5.6152    0.0000 C   0  0  0  0  0  0  0  0  0  0  0  0
   -0.0967    5.1517    0.0000 O   0  0  0  0  0  0  0  0  0  0  0  0
   -0.4086    3.6844    0.0000 C   0  0  0  0  0  0  0  0  0  0  0  0
    0.7062    2.6807    0.0000 C   0  0  0  0  0  0  0  0  0  0  0  0
    2.1328    3.1443    0.0000 C   0  0  0  0  0  0  0  0  0  0  0  0
    0.3943    1.2135    0.0000 C   0  0  0  0  0  0  0  0  0  0  0  0
    1.2760    0.0000    0.0000 C   0  0  0  0  0  0  0  0  0  0  0  0
    0.3943   -1.2135    0.0000 O   0  0  0  0  0  0  0  0  0  0  0  0
   -1.0323   -0.7500    0.0000 C   0  0  0  0  0  0  0  0  0  0  0  0
   -2.2458   -1.6317    0.0000 O   0  0  0  0  0  0  0  0  0  0  0  0
   -1.0323    0.7500    0.0000 C   0  0  0  0  0  0  0  0  0  0  0  0
   -2.1470    1.7537    0.0000 C   0  0  0  0  0  0  0  0  0  0  0  0
   -3.5736    1.2902    0.0000 O   0  0  0  0  0  0  0  0  0  0  0  0
   -1.8351    3.2209    0.0000 C   0  0  0  0  0  0  0  0  0  0  0  0
   -2.9499    4.2246    0.0000 C   0  0  0  0  0  0  0  0  0  0  0  0
   -2.6380    5.6918    0.0000 C   0  0  0  0  0  0  0  0  0  0  0  0
   -3.7527    6.6955    0.0000 C   0  0  0  0  0  0  0  0  0  0  0  0
   -5.1793    6.2320    0.0000 C   0  0  0  0  0  0  0  0  0  0  0  0
   -3.4408    8.1628    0.0000 C   0  0  0  0  0  0  0  0  0  0  0  0
   -2.0143    8.6263    0.0000 C   0  0  0  0  0  0  0  0  0  0  0  0
   -1.7024   10.0935    0.0000 C   0  0  0  0  0  0  0  0  0  0  0  0
   -2.8171   11.0972    0.0000 O   0  0  0  0  0  0  0  0  0  0  0  0
   -0.2758   10.5570    0.0000 O   0  0  0  0  0  0  0  0  0  0  0  0
  1  2  1  0
  2  3  1  0
  3  4  2  0
  4  5  1  0
  4  6  1  0
  6  7  1  0
  7  8  1  0
  8  9  1  0
  9 10  2  0
  9 11  1  0
 11 12  1  0
 12 13  1  0
 12 14  2  0
 14 15  1  0
 15 16  1  0
 16 17  2  0
 17 18  1  0
 17 19  1  0
 19 20  1  0
 20 21  1  0
 21 22  2  0
 21 23  1  0
 14  3  1  0
 11  6  2  0
M  END
$$$$
386457
     RDKit          2D

 31 33  0  0  0  0  0  0  0  0999 V2000
    1.3299    5.6152    0.0000 C   0  0  0  0  0  0  0  0  0  0  0  0
   -0.0967    5.1517    0.0000 O   0  0  0  0  0  0  0  0  0  0  0  0
   -0.4086    3.6844    0.0000 C   0  0  0  0  0  0  0  0  0  0  0  0
    0.7062    2.6807    0.0000 C   0  0  0  0  0  0  0  0  0  0  0  0
    2.1328    3.1443    0.0000 C   0  0  0  0  0  0  0  0  0  0  0  0
    0.3943    1.2135    0.0000 C   0  0  0  0  0  0  0  0  0  0  0  0
    1.2760    0.0000    0.0000 C   0  0  0  0  0  0  0  0  0  0  0  0
    0.3943   -1.2135    0.0000 O   0  0  0  0  0  0  0  0  0  0  0  0
   -1.0323   -0.7500    0.0000 C   0  0  0  0  0  0  0  0  0  0  0  0
   -2.2458   -1.6317    0.0000 O   0  0  0  0  0  0  0  0  0  0  0  0
   -1.0323    0.7500    0.0000 C   0  0  0  0  0  0  0  0  0  0  0  0
   -2.1470    1.7537    0.0000 C   0  0  0  0  0  0  0  0  0  0  0  0
   -3.5736    1.2902    0.0000 O   0  0  0  0  0  0  0  0  0  0  0  0
   -1.8351    3.2209    0.0000 C   0  0  0  0  0  0  0  0  0  0  0  0
   -2.9499    4.2246    0.0000 C   0  0  0  0  0  0  0  0  0  0  0  0
   -2.6380    5.6918    0.0000 C   0  0  0  0  0  0  0  0  0  0  0  0
   -3.7527    6.6955    0.0000 C   0  0  0  0  0  0  0  0  0  0  0  0
   -5.1793    6.2320    0.0000 C   0  0  0  0  0  0  0  0  0  0  0  0
   -3.4408    8.1628    0.0000 C   0  0  0  0  0  0  0  0  0  0  0  0
   -2.0143    8.6263    0.0000 C   0  0  0  0  0  0  0  0  0  0  0  0
   -1.7024   10.0935    0.0000 C   0  0  0  0  0  0  0  0  0  0  0  0
   -2.8171   11.0972    0.0000 O   0  0  0  0  0  0  0  0  0  0  0  0
   -0.2758   10.5570    0.0000 O   0  0  0  0  0  0  0  0  0  0  0  0
    0.0361   12.0242    0.0000 C   0  0  0  0  0  0  0  0  0  0  0  0
    1.4627   12.4878    0.0000 C   0  0  0  0  0  0  0  0  0  0  0  0
    1.7745   13.9550    0.0000 N   0  0  0  0  0  0  0  0  0  0  0  0
    3.2011   14.4185    0.0000 C   0  0  0  0  0  0  0  0  0  0  0  0
    3.5130   15.8857    0.0000 C   0  0  0  0  0  0  0  0  0  0  0  0
    2.3983   16.8894    0.0000 O   0  0  0  0  0  0  0  0  0  0  0  0
    0.9717   16.4259    0.0000 C   0  0  0  0  0  0  0  0  0  0  0  0
    0.6598   14.9587    0.0000 C   0  0  0  0  0  0  0  0  0  0  0  0
  1  2  1  0
  2  3  1  0
  3  4  2  0
  4  5  1  0
  4  6  1  0
  6  7  1  0
  7  8  1  0
  8  9  1  0
  9 10  2  0
  9 11  1  0
 11 12  1  0
 12 13  1  0
 12 14  2  0
 14 15  1  0
 15 16  1  0
 16 17  2  0
 17 18  1  0
 17 19  1  0
 19 20  1  0
 20 21  1  0
 21 22  2  0
 21 23  1  0
 23 24  1  0
 24 25  1  0
 25 26  1  0
 26 27  1  0
 27 28  1  0
 28 29  1  0
 29 30  1  0
 30 31  1  0
 14  3  1  0
 11  6  2  0
 31 26  1  0
M  END
$$$$
1626743
     RDKit          2D

 35 38  0  0  0  0  0  0  0  0999 V2000
   -1.5000   -5.1962    0.0000 C   0  0  0  0  0  0  0  0  0  0  0  0
   -0.7500   -3.8971    0.0000 O   0  0  0  0  0  0  0  0  0  0  0  0
    0.7500   -3.8971    0.0000 C   0  0  0  0  0  0  0  0  0  0  0  0
    1.5000   -2.5981    0.0000 C   0  0  0  0  0  0  0  0  0  0  0  0
    3.0000   -2.5981    0.0000 C   0  0  0  0  0  0  0  0  0  0  0  0
    3.7500   -3.8971    0.0000 C   0  0  0  0  0  0  0  0  0  0  0  0
    3.0000   -5.1962    0.0000 C   0  0  0  0  0  0  0  0  0  0  0  0
    1.5000   -5.1962    0.0000 C   0  0  0  0  0  0  0  0  0  0  0  0
    0.7500   -6.4952    0.0000 C   0  0  0  0  0  0  0  0  0  0  0  0
    2.0490   -7.2452    0.0000 C   0  0  0  0  0  0  0  0  0  0  0  0
   -0.5490   -5.7452    0.0000 C   0  0  0  0  0  0  0  0  0  0  0  0
   -0.0000   -7.7942    0.0000 C   0  0  0  0  0  0  0  0  0  0  0  0
    5.2500   -3.8971    0.0000 N   0  0  0  0  0  0  0  0  0  0  0  0
    6.0000   -5.1962    0.0000 C   0  0  0  0  0  0  0  0  0  0  0  0
    7.5000   -5.1962    0.0000 C   0  0  0  0  0  0  0  0  0  0  0  0
    8.2500   -3.8971    0.0000 C   0  0  0  0  0  0  0  0  0  0  0  0
    9.7500   -3.8971    0.0000 O   0  0  0  0  0  0  0  0  0  0  0  0
    7.5000   -2.5981    0.0000 N   0  0  0  0  0  0  0  0  0  0  0  0
    6.0000   -2.5981    0.0000 C   0  0  0  0  0  0  0  0  0  0  0  0
    5.2500   -1.2990    0.0000 O   0  0  0  0  0  0  0  0  0  0  0  0
    0.7500   -1.2990    0.0000 C   0  0  0  0  0  0  0  0  0  0  0  0
    1.5000    0.0000    0.0000 C   0  0  0  0  0  0  0  0  0  0  0  0
    0.7500    1.2990    0.0000 C   0  0  0  0  0  0  0  0  0  0  0  0
   -0.7500    1.2990    0.0000 C   0  0  0  0  0  0  0  0  0  0  0  0
   -1.5000    2.5981    0.0000 C   0  0  0  0  0  0  0  0  0  0  0  0
   -3.0000    2.5981    0.0000 C   0  0  0  0  0  0  0  0  0  0  0  0
   -3.7500    3.8971    0.0000 N   0  0  0  0  0  0  0  0  0  0  0  0
   -3.0000    5.1962    0.0000 S   0  0  0  0  0  0  0  0  0  0  0  0
   -1.7010    4.4462    0.0000 O   0  0  0  0  0  0  0  0  0  0  0  0
   -4.2990    5.9462    0.0000 O   0  0  0  0  0  0  0  0  0  0  0  0
   -2.2500    6.4952    0.0000 C   0  0  0  0  0  0  0  0  0  0  0  0
   -3.7500    1.2990    0.0000 C   0  0  0  0  0  0  0  0  0  0  0  0
   -3.0000    0.0000    0.0000 C   0  0  0  0  0  0  0  0  0  0  0  0
   -1.5000    0.0000    0.0000 C   0  0  0  0  0  0  0  0  0  0  0  0
   -0.7500   -1.2990    0.0000 C   0  0  0  0  0  0  0  0  0  0  0  0
  1  2  1  0
  2  3  1  0
  3  4  2  0
  4  5  1  0
  5  6  2  0
  6  7  1  0
  7  8  2  0
  8  9  1  0
  9 10  1  0
  9 11  1  0
  9 12  1  0
  6 13  1  0
 13 14  1  0
 14 15  2  0
 15 16  1  0
 16 17  2  0
 16 18  1  0
 18 19  1  0
 19 20  2  0
  4 21  1  0
 21 22  2  0
 22 23  1  0
 23 24  2  0
 24 25  1  0
 25 26  2  0
 26 27  1  0
 27 28  1  0
 28 29  2  0
 28 30  2  0
 28 31  1  0
 26 32  1  0
 32 33  2  0
 33 34  1  0
 34 35  2  0
  8  3  1  0
 19 13  1  0
 35 21  1  0
 34 24  1  0
M  END
$$$$
1712
     RDKit          2D

 27 30  0  0  0  0  0  0  0  0999 V2000
    3.7500    1.2990    0.0000 C   0  0  0  0  0  0  0  0  0  0  0  0
    3.0000    0.0000    0.0000 O   0  0  0  0  0  0  0  0  0  0  0  0
    1.5000    0.0000    0.0000 C   0  0  0  0  0  0  0  0  0  0  0  0
    0.7500   -1.2990    0.0000 C   0  0  0  0  0  0  0  0  0  0  0  0
    1.5000   -2.5981    0.0000 N   0  0  0  0  0  0  0  0  0  0  0  0
    0.7500   -3.8971    0.0000 C   0  0  0  0  0  0  0  0  0  0  0  0
    1.5000   -5.1962    0.0000 C   0  0  0  0  0  0  0  0  0  0  0  0
    3.0000   -5.1962    0.0000 N   0  0  0  0  0  0  0  0  0  0  0  0
    3.7500   -3.8971    0.0000 C   0  0  0  0  0  0  0  0  0  0  0  0
    5.2500   -3.8971    0.0000 C   0  0  0  0  0  0  0  0  0  0  0  0
    3.0000   -2.5981    0.0000 C   0  0  0  0  0  0  0  0  0  0  0  0
   -0.7500   -1.2990    0.0000 C   0  0  0  0  0  0  0  0  0  0  0  0
   -1.5000   -2.5981    0.0000 F   0  0  0  0  0  0  0  0  0  0  0  0
   -1.5000    0.0000    0.0000 C   0  0  0  0  0  0  0  0  0  0  0  0
   -0.7500    1.2990    0.0000 C   0  0  0  0  0  0  0  0  0  0  0  0
   -1.5000    2.5981    0.0000 C   0  0  0  0  0  0  0  0  0  0  0  0
   -3.0000    2.5981    0.0000 O   0  0  0  0  0  0  0  0  0  0  0  0
   -0.7500    3.8971    0.0000 C   0  0  0  0  0  0  0  0  0  0  0  0
    0.7500    3.8971    0.0000 C   0  0  0  0  0  0  0  0  0  0  0  0
    1.5000    2.5981    0.0000 N   0  0  0  0  0  0  0  0  0  0  0  0
    3.0000    2.5981    0.0000 C   0  0  0  0  0  0  0  0  0  0  0  0
    4.2990    3.3481    0.0000 C   0  0  0  0  0  0  0  0  0  0  0  0
    4.2990    1.8481    0.0000 C   0  0  0  0  0  0  0  0  0  0  0  0
    0.7500    1.2990    0.0000 C   0  0  0  0  0  0  0  0  0  0  0  0
   -1.5000    5.1962    0.0000 C   0  0  0  0  0  0  0  0  0  0  0  0
   -3.0000    5.1962    0.0000 O   0  0  0  0  0  0  0  0  0  0  0  0
   -0.7500    6.4952    0.0000 O   0  0  0  0  0  0  0  0  0  0  0  0
  1  2  1  0
  2  3  1  0
  3  4  2  0
  4  5  1  0
  5  6  1  0
  6  7  1  0
  7  8  1  0
  8  9  1  0
  9 10  1  0
  9 11  1  0
  4 12  1  0
 12 13  1  0
 12 14  2  0
 14 15  1  0
 15 16  1  0
 16 17  2  0
 16 18  1  0
 18 19  2  0
 19 20  1  0
 20 21  1  0
 21 22  1  0
 22 23  1  0
 20 24  1  0
 18 25  1  0
 25 26  2  0
 25 27  1  0
 24  3  1  0
 11  5  1  0
 24 15  2  0
 23 21  1  0
M  END
$$$$
1788
     RDKit          2D

 29 33  0  0  0  0  0  0  0  0999 V2000
    3.7500    1.2990    0.0000 C   0  0  0  0  0  0  0  0  0  0  0  0
    3.0000    0.0000    0.0000 O   0  0  0  0  0  0  0  0  0  0  0  0
    1.5000    0.0000    0.0000 C   0  0  0  0  0  0  0  0  0  0  0  0
    0.7500   -1.2990    0.0000 C   0  0  0  0  0  0  0  0  0  0  0  0
    1.5000   -2.5981    0.0000 N   0  0  0  0  0  0  0  0  0  0  0  0
    0.8899   -3.9684    0.0000 C   0  0  0  0  0  0  0  0  0  0  0  0
    2.0046   -4.9721    0.0000 C   0  0  0  0  0  0  0  0  0  0  0  0
    2.0046   -6.4721    0.0000 C   0  0  0  0  0  0  0  0  0  0  0  0
    3.3037   -7.2221    0.0000 C   0  0  0  0  0  0  0  0  0  0  0  0
    4.6027   -6.4721    0.0000 C   0  0  0  0  0  0  0  0  0  0  0  0
    4.6027   -4.9721    0.0000 N   0  0  0  0  0  0  0  0  0  0  0  0
    3.3037   -4.2221    0.0000 C   0  0  0  0  0  0  0  0  0  0  0  0
    2.9918   -2.7549    0.0000 C   0  0  0  0  0  0  0  0  0  0  0  0
   -0.7500   -1.2990    0.0000 C   0  0  0  0  0  0  0  0  0  0  0  0
   -1.5000   -2.5981    0.0000 F   0  0  0  0  0  0  0  0  0  0  0  0
   -1.5000    0.0000    0.0000 C   0  0  0  0  0  0  0  0  0  0  0  0
   -0.7500    1.2990    0.0000 C   0  0  0  0  0  0  0  0  0  0  0  0
   -1.5000    2.5981    0.0000 C   0  0  0  0  0  0  0  0  0  0  0  0
   -3.0000    2.5981    0.0000 O   0  0  0  0  0  0  0  0  0  0  0  0
   -0.7500    3.8971    0.0000 C   0  0  0  0  0  0  0  0  0  0  0  0
    0.7500    3.8971    0.0000 C   0  0  0  0  0  0  0  0  0  0  0  0
    1.5000    2.5981    0.0000 N   0  0  0  0  0  0  0  0  0  0  0  0
    3.0000    2.5981    0.0000 C   0  0  0  0  0  0  0  0  0  0  0  0
    4.2990    3.3481    0.0000 C   0  0  0  0  0  0  0  0  0  0  0  0
    4.2990    1.8481    0.0000 C   0  0  0  0  0  0  0  0  0  0  0  0
    0.7500    1.2990    0.0000 C   0  0  0  0  0  0  0  0  0  0  0  0
   -1.5000    5.1962    0.0000 C   0  0  0  0  0  0  0  0  0  0  0  0
   -3.0000    5.1962    0.0000 O   0  0  0  0  0  0  0  0  0  0  0  0
   -0.7500    6.4952    0.0000 O   0  0  0  0  0  0  0  0  0  0  0  0
  1  2  1  0
  2  3  1  0
  3  4  2  0
  4  5  1  0
  5  6  1  0
  7  6  1  1
  7  8  1  0
  8  9  1  0
  9 10  1  0
 10 11  1  0
 11 12  1  0
 12 13  1  1
  4 14  1  0
 14 15  1  0
 14 16  2  0
 16 17  1  0
 17 18  1  0
 18 19  2  0
 18 20  1  0
 20 21  2  0
 21 22  1  0
 22 23  1  0
 23 24  1  0
 24 25  1  0
 22 26  1  0
 20 27  1  0
 27 28  2  0
 27 29  1  0
 26  3  1  0
 13  5  1  0
 12  7  1  0
 26 17  2  0
 25 23  1  0
M  END
$$$$
1063
     RDKit          2D

 16 18  0  0  0  0  0  0  0  0999 V2000
   -4.6883    2.2939    0.0000 C   0  0  0  0  0  0  0  0  0  0  0  0
   -3.5736    1.2902    0.0000 O   0  0  0  0  0  0  0  0  0  0  0  0
   -2.1470    1.7537    0.0000 C   0  0  0  0  0  0  0  0  0  0  0  0
   -1.8351    3.2209    0.0000 C   0  0  0  0  0  0  0  0  0  0  0  0
   -2.9499    4.2246    0.0000 O   0  0  0  0  0  0  0  0  0  0  0  0
   -2.6380    5.6918    0.0000 C   0  0  0  0  0  0  0  0  0  0  0  0
   -3.7527    6.6955    0.0000 O   0  0  0  0  0  0  0  0  0  0  0  0
   -1.2114    6.1554    0.0000 C   0  0  0  0  0  0  0  0  0  0  0  0
   -0.0967    5.1517    0.0000 C   0  0  0  0  0  0  0  0  0  0  0  0
   -0.4086    3.6844    0.0000 C   0  0  0  0  0  0  0  0  0  0  0  0
    0.7062    2.6807    0.0000 C   0  0  0  0  0  0  0  0  0  0  0  0
    0.3943    1.2135    0.0000 C   0  0  0  0  0  0  0  0  0  0  0  0
    1.2760    0.0000    0.0000 C   0  0  0  0  0  0  0  0  0  0  0  0
    0.3943   -1.2135    0.0000 C   0  0  0  0  0  0  0  0  0  0  0  0
   -1.0323   -0.7500    0.0000 O   0  0  0  0  0  0  0  0  0  0  0  0
   -1.0323    0.7500    0.0000 C   0  0  0  0  0  0  0  0  0  0  0  0
  1  2  1  0
  2  3  1  0
  3  4  2  0
  4  5  1  0
  5  6  1  0
  6  7  2  0
  6  8  1  0
  8  9  2  0
  9 10  1  0
 10 11  2  0
 11 12  1  0
 12 13  1  0
 13 14  2  0
 14 15  1  0
 15 16  1  0
 16  3  1  0
 10  4  1  0
 16 12  2  0
M  END
$$$$
169652
     RDKit          2D

 24 24  0  0  0  0  0  0  0  0999 V2000
    3.7500   -1.2990    0.0000 C   0  0  0  0  0  0  0  0  0  0  0  0
    3.0000    0.0000    0.0000 O   0  0  0  0  0  0  0  0  0  0  0  0
    1.5000    0.0000    0.0000 C   0  0  0  0  0  0  0  0  0  0  0  0
    0.7500   -1.2990    0.0000 C   0  0  0  0  0  0  0  0  0  0  0  0
   -0.7500   -1.2990    0.0000 C   0  0  0  0  0  0  0  0  0  0  0  0
   -1.5000   -2.5981    0.0000 C   0  0  0  0  0  0  0  0  0  0  0  0
   -1.5000    0.0000    0.0000 C   0  0  0  0  0  0  0  0  0  0  0  0
   -3.0000    0.0000    0.0000 C   0  0  0  0  0  0  0  0  0  0  0  0
   -3.7500    1.2990    0.0000 C   0  0  0  0  0  0  0  0  0  0  0  0
   -5.2500    1.2990    0.0000 C   0  0  0  0  0  0  0  0  0  0  0  0
   -6.0000    2.5981    0.0000 C   0  0  0  0  0  0  0  0  0  0  0  0
   -7.5000    2.5981    0.0000 C   0  0  0  0  0  0  0  0  0  0  0  0
   -8.2500    3.8971    0.0000 C   0  0  0  0  0  0  0  0  0  0  0  0
   -9.7500    3.8971    0.0000 C   0  0  0  0  0  0  0  0  0  0  0  0
  -10.5000    5.1962    0.0000 C   0  0  0  0  0  0  0  0  0  0  0  0
  -12.0000    5.1962    0.0000 C   0  0  0  0  0  0  0  0  0  0  0  0
  -12.7500    3.8971    0.0000 O   0  0  0  0  0  0  0  0  0  0  0  0
  -12.7500    6.4952    0.0000 O   0  0  0  0  0  0  0  0  0  0  0  0
  -10.5000    2.5981    0.0000 C   0  0  0  0  0  0  0  0  0  0  0  0
   -6.0000    0.0000    0.0000 C   0  0  0  0  0  0  0  0  0  0  0  0
   -0.7500    1.2990    0.0000 C   0  0  0  0  0  0  0  0  0  0  0  0
   -1.5000    2.5981    0.0000 C   0  0  0  0  0  0  0  0  0  0  0  0
    0.7500    1.2990    0.0000 C   0  0  0  0  0  0  0  0  0  0  0  0
    1.5000    2.5981    0.0000 C   0  0  0  0  0  0  0  0  0  0  0  0
  1  2  1  0
  2  3  1  0
  3  4  2  0
  4  5  1  0
  5  6  1  0
  5  7  2  0
  7  8  1  0
  8  9  2  0
  9 10  1  0
 10 11  2  0
 11 12  1  0
 12 13  2  0
 13 14  1  0
 14 15  2  0
 15 16  1  0
 16 17  2  0
 16 18  1  0
 14 19  1  0
 10 20  1  0
  7 21  1  0
 21 22  1  0
 21 23  2  0
 23 24  1  0
 23  3  1  0
M  END
$$$$
68607
     RDKit          2D

 42 48  0  0  0  0  0  0  0  0999 V2000
   -9.4590    4.8414    0.0000 C   0  0  0  0  0  0  0  0  0  0  0  0
   -8.0325    5.3050    0.0000 O   0  0  0  0  0  0  0  0  0  0  0  0
   -6.9177    4.3013    0.0000 C   0  0  0  0  0  0  0  0  0  0  0  0
   -5.4912    4.7648    0.0000 C   0  0  0  0  0  0  0  0  0  0  0  0
   -4.3764    3.7611    0.0000 C   0  0  0  0  0  0  0  0  0  0  0  0
   -4.6883    2.2939    0.0000 C   0  0  0  0  0  0  0  0  0  0  0  0
   -6.1149    1.8303    0.0000 C   0  0  0  0  0  0  0  0  0  0  0  0
   -6.4268    0.3631    0.0000 O   0  0  0  0  0  0  0  0  0  0  0  0
   -7.8533   -0.1004    0.0000 C   0  0  0  0  0  0  0  0  0  0  0  0
   -7.2296    2.8340    0.0000 C   0  0  0  0  0  0  0  0  0  0  0  0
   -8.6562    2.3705    0.0000 O   0  0  0  0  0  0  0  0  0  0  0  0
   -2.9499    4.2246    0.0000 C   0  0  0  0  0  0  0  0  0  0  0  0
   -2.6380    5.6918    0.0000 C   0  0  0  0  0  0  0  0  0  0  0  0
   -1.2114    6.1554    0.0000 C   0  0  0  0  0  0  0  0  0  0  0  0
   -1.2114    7.6554    0.0000 C   0  0  0  0  0  0  0  0  0  0  0  0
   -2.6380    8.1189    0.0000 O   0  0  0  0  0  0  0  0  0  0  0  0
   -3.5197    6.9054    0.0000 C   0  0  0  0  0  0  0  0  0  0  0  0
   -5.0197    6.9054    0.0000 O   0  0  0  0  0  0  0  0  0  0  0  0
   -0.0967    5.1517    0.0000 C   0  0  0  0  0  0  0  0  0  0  0  0
    1.3299    5.6152    0.0000 O   0  0  0  0  0  0  0  0  0  0  0  0
    1.6418    7.0824    0.0000 C   0  0  0  0  0  0  0  0  0  0  0  0
    0.5271    8.0861    0.0000 O   0  0  0  0  0  0  0  0  0  0  0  0
    0.8389    9.5533    0.0000 C   0  0  0  0  0  0  0  0  0  0  0  0
   -0.2758   10.5570    0.0000 C   0  0  0  0  0  0  0  0  0  0  0  0
    0.0361   12.0242    0.0000 O   0  0  0  0  0  0  0  0  0  0  0  0
    1.4627   12.4878    0.0000 C   0  0  0  0  0  0  0  0  0  0  0  0
    1.7745   13.9550    0.0000 C   0  0  0  0  0  0  0  0  0  0  0  0
    2.5774   11.4841    0.0000 O   0  0  0  0  0  0  0  0  0  0  0  0
    2.2655   10.0169    0.0000 C   0  0  0  0  0  0  0  0  0  0  0  0
    3.3802    9.0132    0.0000 C   0  0  0  0  0  0  0  0  0  0  0  0
    4.8068    9.4767    0.0000 O   0  0  0  0  0  0  0  0  0  0  0  0
    3.0684    7.5459    0.0000 C   0  0  0  0  0  0  0  0  0  0  0  0
    4.1831    6.5422    0.0000 O   0  0  0  0  0  0  0  0  0  0  0  0
   -0.4086    3.6844    0.0000 C   0  0  0  0  0  0  0  0  0  0  0  0
    0.7062    2.6807    0.0000 C   0  0  0  0  0  0  0  0  0  0  0  0
    0.3943    1.2135    0.0000 C   0  0  0  0  0  0  0  0  0  0  0  0
    1.2760    0.0000    0.0000 O   0  0  0  0  0  0  0  0  0  0  0  0
    0.3943   -1.2135    0.0000 C   0  0  0  0  0  0  0  0  0  0  0  0
   -1.0323   -0.7500    0.0000 O   0  0  0  0  0  0  0  0  0  0  0  0
   -1.0323    0.7500    0.0000 C   0  0  0  0  0  0  0  0  0  0  0  0
   -2.1470    1.7537    0.0000 C   0  0  0  0  0  0  0  0  0  0  0  0
   -1.8351    3.2209    0.0000 C   0  0  0  0  0  0  0  0  0  0  0  0
  1  2  1  0
  2  3  1  0
  3  4  2  0
  4  5  1  0
  5  6  2  0
  6  7  1  0
  7  8  1  0
  8  9  1  0
  7 10  2  0
 10 11  1  0
 12  5  1  1
 12 13  1  0
 13 14  1  0
 14 15  1  6
 15 16  1  0
 16 17  1  0
 17 18  2  0
 14 19  1  0
 19 20  1  6
 21 20  1  6
 21 22  1  0
 22 23  1  0
 23 24  1  6
 24 25  1  0
 25 26  1  0
 26 27  1  1
 26 28  1  0
 29 28  1  1
 29 30  1  0
 30 31  1  6
 30 32  1  0
 32 33  1  1
 19 34  1  0
 34 35  2  0
 35 36  1  0
 36 37  1  0
 37 38  1  0
 38 39  1  0
 39 40  1  0
 40 41  1  0
 41 42  2  0
 10  3  1  0
 42 12  1  0
 13 17  1  1
 32 21  1  0
 29 23  1  0
 42 34  1  0
 40 36  2  0
M  END
$$$$
675207
     RDKit          2D

 28 29  0  0  0  0  0  0  0  0999 V2000
    3.7500   -1.2990    0.0000 C   0  0  0  0  0  0  0  0  0  0  0  0
    3.0000    0.0000    0.0000 O   0  0  0  0  0  0  0  0  0  0  0  0
    1.5000    0.0000    0.0000 C   0  0  0  0  0  0  0  0  0  0  0  0
    0.7500   -1.2990    0.0000 C   0  0  0  0  0  0  0  0  0  0  0  0
   -0.7500   -1.2990    0.0000 C   0  0  0  0  0  0  0  0  0  0  0  0
   -1.5000    0.0000    0.0000 C   0  0  0  0  0  0  0  0  0  0  0  0
   -0.7500    1.2990    0.0000 C   0  0  0  0  0  0  0  0  0  0  0  0
   -1.5000    2.5981    0.0000 O   0  0  0  0  0  0  0  0  0  0  0  0
   -0.7500    3.8971    0.0000 C   0  0  0  0  0  0  0  0  0  0  0  0
    0.7500    1.2990    0.0000 C   0  0  0  0  0  0  0  0  0  0  0  0
    1.5000    2.5981    0.0000 O   0  0  0  0  0  0  0  0  0  0  0  0
    3.0000    2.5981    0.0000 C   0  0  0  0  0  0  0  0  0  0  0  0
   -1.5000   -2.5981    0.0000 C   0  0  0  0  0  0  0  0  0  0  0  0
   -0.7500   -3.8971    0.0000 O   0  0  0  0  0  0  0  0  0  0  0  0
   -3.0000   -2.5981    0.0000 N   0  0  0  0  0  0  0  0  0  0  0  0
   -3.7500   -3.8971    0.0000 C   0  0  0  0  0  0  0  0  0  0  0  0
   -5.2500   -3.8971    0.0000 C   0  0  0  0  0  0  0  0  0  0  0  0
   -6.0000   -2.5981    0.0000 C   0  0  0  0  0  0  0  0  0  0  0  0
   -7.5000   -2.5981    0.0000 C   0  0  0  0  0  0  0  0  0  0  0  0
   -8.2500   -3.8971    0.0000 C   0  0  0  0  0  0  0  0  0  0  0  0
   -9.7500   -3.8971    0.0000 O   0  0  0  0  0  0  0  0  0  0  0  0
  -10.5000   -2.5981    0.0000 C   0  0  0  0  0  0  0  0  0  0  0  0
  -12.0000   -2.5981    0.0000 C   0  0  0  0  0  0  0  0  0  0  0  0
  -12.7500   -1.2990    0.0000 N   0  0  0  0  0  0  0  0  0  0  0  0
  -14.2500   -1.2990    0.0000 C   0  0  0  0  0  0  0  0  0  0  0  0
  -12.0000    0.0000    0.0000 C   0  0  0  0  0  0  0  0  0  0  0  0
   -7.5000   -5.1962    0.0000 C   0  0  0  0  0  0  0  0  0  0  0  0
   -6.0000   -5.1962    0.0000 C   0  0  0  0  0  0  0  0  0  0  0  0
  1  2  1  0
  2  3  1  0
  3  4  2  0
  4  5  1  0
  5  6  2  0
  6  7  1  0
  7  8  1  0
  8  9  1  0
  7 10  2  0
 10 11  1  0
 11 12  1  0
  5 13  1  0
 13 14  2  0
 13 15  1  0
 15 16  1  0
 16 17  1  0
 17 18  2  0
 18 19  1  0
 19 20  2  0
 20 21  1  0
 21 22  1  0
 22 23  1  0
 23 24  1  0
 24 25  1  0
 24 26  1  0
 20 27  1  0
 27 28  2  0
 10  3  1  0
 28 17  1  0
M  END
$$$$
1216
     RDKit          2D

 21 22  0  0  0  0  0  0  0  0999 V2000
    3.7500   -1.2990    0.0000 C   0  0  0  0  0  0  0  0  0  0  0  0
    3.0000    0.0000    0.0000 O   0  0  0  0  0  0  0  0  0  0  0  0
    1.5000    0.0000    0.0000 C   0  0  0  0  0  0  0  0  0  0  0  0
    0.7500   -1.2990    0.0000 C   0  0  0  0  0  0  0  0  0  0  0  0
   -0.7500   -1.2990    0.0000 C   0  0  0  0  0  0  0  0  0  0  0  0
   -1.5000   -2.5981    0.0000 C   0  0  0  0  0  0  0  0  0  0  0  0
   -3.0000   -2.5981    0.0000 C   0  0  0  0  0  0  0  0  0  0  0  0
   -3.7500   -1.2990    0.0000 C   0  0  0  0  0  0  0  0  0  0  0  0
   -5.2500   -1.2990    0.0000 N   0  0  0  0  0  0  0  0  0  0  0  0
   -6.0000   -2.5981    0.0000 C   0  0  0  0  0  0  0  0  0  0  0  0
   -7.5000   -2.5981    0.0000 N   0  0  0  0  0  0  0  0  0  0  0  0
   -5.2500   -3.8971    0.0000 N   0  0  0  0  0  0  0  0  0  0  0  0
   -3.7500   -3.8971    0.0000 C   0  0  0  0  0  0  0  0  0  0  0  0
   -3.0000   -5.1962    0.0000 N   0  0  0  0  0  0  0  0  0  0  0  0
   -1.5000    0.0000    0.0000 C   0  0  0  0  0  0  0  0  0  0  0  0
   -0.7500    1.2990    0.0000 C   0  0  0  0  0  0  0  0  0  0  0  0
   -1.5000    2.5981    0.0000 O   0  0  0  0  0  0  0  0  0  0  0  0
   -0.7500    3.8971    0.0000 C   0  0  0  0  0  0  0  0  0  0  0  0
    0.7500    1.2990    0.0000 C   0  0  0  0  0  0  0  0  0  0  0  0
    1.5000    2.5981    0.0000 O   0  0  0  0  0  0  0  0  0  0  0  0
    3.0000    2.5981    0.0000 C   0  0  0  0  0  0  0  0  0  0  0  0
  1  2  1  0
  2  3  1  0
  3  4  2  0
  4  5  1  0
  5  6  1  0
  6  7  1  0
  7  8  2  0
  8  9  1  0
  9 10  2  0
 10 11  1  0
 10 12  1  0
 12 13  2  0
 13 14  1  0
  5 15  2  0
 15 16  1  0
 16 17  1  0
 17 18  1  0
 16 19  2  0
 19 20  1  0
 20 21  1  0
 19  3  1  0
 13  7  1  0
M  END
$$$$
21523
     RDKit          2D

 41 45  0  0  0  0  0  0  0  0999 V2000
    0.7040   -6.2002    0.0000 C   0  0  0  0  0  0  0  0  0  0  0  0
   -0.4107   -5.1965    0.0000 O   0  0  0  0  0  0  0  0  0  0  0  0
   -1.8373   -5.6601    0.0000 C   0  0  0  0  0  0  0  0  0  0  0  0
   -2.1491   -7.1273    0.0000 C   0  0  0  0  0  0  0  0  0  0  0  0
   -3.5757   -7.5908    0.0000 C   0  0  0  0  0  0  0  0  0  0  0  0
   -4.6904   -6.5871    0.0000 C   0  0  0  0  0  0  0  0  0  0  0  0
   -4.3786   -5.1199    0.0000 C   0  0  0  0  0  0  0  0  0  0  0  0
   -2.9520   -4.6564    0.0000 C   0  0  0  0  0  0  0  0  0  0  0  0
   -2.6401   -3.1891    0.0000 C   0  0  0  0  0  0  0  0  0  0  0  0
   -1.2135   -2.7256    0.0000 C   0  0  0  0  0  0  0  0  0  0  0  0
   -0.0000   -3.6073    0.0000 C   0  0  0  0  0  0  0  0  0  0  0  0
    1.2135   -2.7256    0.0000 N   0  0  0  0  0  0  0  0  0  0  0  0
    2.6401   -3.1891    0.0000 C   0  0  0  0  0  0  0  0  0  0  0  0
    0.7500   -1.2990    0.0000 C   0  0  0  0  0  0  0  0  0  0  0  0
    1.5000    0.0000    0.0000 C   0  0  0  0  0  0  0  0  0  0  0  0
    0.7500    1.2990    0.0000 C   0  0  0  0  0  0  0  0  0  0  0  0
   -0.7500    1.2990    0.0000 C   0  0  0  0  0  0  0  0  0  0  0  0
   -1.5000    2.5981    0.0000 N   0  0  0  0  0  0  0  0  0  0  0  0
   -0.7500    3.8971    0.0000 C   0  0  0  0  0  0  0  0  0  0  0  0
    0.7500    3.8971    0.0000 O   0  0  0  0  0  0  0  0  0  0  0  0
   -1.5000    5.1962    0.0000 O   0  0  0  0  0  0  0  0  0  0  0  0
   -0.7500    6.4952    0.0000 C   0  0  0  0  0  0  0  0  0  0  0  0
   -1.3601    7.8655    0.0000 C   0  0  0  0  0  0  0  0  0  0  0  0
   -0.2454    8.8692    0.0000 C   0  0  0  0  0  0  0  0  0  0  0  0
    1.0537    8.1192    0.0000 C   0  0  0  0  0  0  0  0  0  0  0  0
    0.7418    6.6520    0.0000 C   0  0  0  0  0  0  0  0  0  0  0  0
   -1.5000    0.0000    0.0000 C   0  0  0  0  0  0  0  0  0  0  0  0
   -0.7500   -1.2990    0.0000 C   0  0  0  0  0  0  0  0  0  0  0  0
   -3.8876   -9.0580    0.0000 C   0  0  0  0  0  0  0  0  0  0  0  0
   -2.7729  -10.0617    0.0000 O   0  0  0  0  0  0  0  0  0  0  0  0
   -5.3142   -9.5216    0.0000 N   0  0  0  0  0  0  0  0  0  0  0  0
   -5.6260  -10.9888    0.0000 S   0  0  0  0  0  0  0  0  0  0  0  0
   -4.1588  -11.3006    0.0000 O   0  0  0  0  0  0  0  0  0  0  0  0
   -7.0933  -10.6769    0.0000 O   0  0  0  0  0  0  0  0  0  0  0  0
   -5.9379  -12.4560    0.0000 C   0  0  0  0  0  0  0  0  0  0  0  0
   -7.3645  -12.9195    0.0000 C   0  0  0  0  0  0  0  0  0  0  0  0
   -7.6764  -14.3867    0.0000 C   0  0  0  0  0  0  0  0  0  0  0  0
   -6.5616  -15.3904    0.0000 C   0  0  0  0  0  0  0  0  0  0  0  0
   -5.1351  -14.9269    0.0000 C   0  0  0  0  0  0  0  0  0  0  0  0
   -4.8232  -13.4597    0.0000 C   0  0  0  0  0  0  0  0  0  0  0  0
   -3.3966  -12.9962    0.0000 C   0  0  0  0  0  0  0  0  0  0  0  0
  1  2  1  0
  2  3  1  0
  3  4  2  0
  4  5  1  0
  5  6  2  0
  6  7  1  0
  7  8  2  0
  8  9  1  0
  9 10  1  0
 10 11  2  0
 11 12  1  0
 12 13  1  0
 12 14  1  0
 14 15  2  0
 15 16  1  0
 16 17  2  0
 17 18  1  0
 18 19  1  0
 19 20  2  0
 19 21  1  0
 21 22  1  0
 22 23  1  0
 23 24  1  0
 24 25  1  0
 25 26  1  0
 17 27  1  0
 27 28  2  0
  5 29  1  0
 29 30  2  0
 29 31  1  0
 31 32  1  0
 32 33  2  0
 32 34  2  0
 32 35  1  0
 35 36  2  0
 36 37  1  0
 37 38  2  0
 38 39  1  0
 39 40  2  0
 40 41  1  0
  8  3  1  0
 28 10  1  0
 28 14  1  0
 26 22  1  0
 40 35  1  0
M  END
$$$$
13949
     RDKit          2D

 31 34  0  0  0  0  0  0  0  0999 V2000
  -11.5115   -7.4375    0.0000 C   0  0  0  0  0  0  0  0  0  0  0  0
  -11.1996   -5.9703    0.0000 O   0  0  0  0  0  0  0  0  0  0  0  0
  -12.3143   -4.9666    0.0000 C   0  0  0  0  0  0  0  0  0  0  0  0
  -13.7409   -5.4301    0.0000 C   0  0  0  0  0  0  0  0  0  0  0  0
  -14.8556   -4.4264    0.0000 C   0  0  0  0  0  0  0  0  0  0  0  0
  -14.5438   -2.9592    0.0000 C   0  0  0  0  0  0  0  0  0  0  0  0
  -13.1172   -2.4957    0.0000 C   0  0  0  0  0  0  0  0  0  0  0  0
  -12.0025   -3.4994    0.0000 C   0  0  0  0  0  0  0  0  0  0  0  0
  -10.5759   -3.0359    0.0000 O   0  0  0  0  0  0  0  0  0  0  0  0
   -9.4612   -4.0396    0.0000 C   0  0  0  0  0  0  0  0  0  0  0  0
   -8.0346   -3.5760    0.0000 C   0  0  0  0  0  0  0  0  0  0  0  0
   -6.9199   -4.5797    0.0000 C   0  0  0  0  0  0  0  0  0  0  0  0
   -5.4933   -4.1162    0.0000 N   0  0  0  0  0  0  0  0  0  0  0  0
   -4.3786   -5.1199    0.0000 C   0  0  0  0  0  0  0  0  0  0  0  0
   -2.9520   -4.6564    0.0000 C   0  0  0  0  0  0  0  0  0  0  0  0
   -2.6401   -3.1891    0.0000 C   0  0  0  0  0  0  0  0  0  0  0  0
   -3.7548   -2.1855    0.0000 C   0  0  0  0  0  0  0  0  0  0  0  0
   -5.1814   -2.6490    0.0000 C   0  0  0  0  0  0  0  0  0  0  0  0
   -1.2135   -2.7256    0.0000 C   0  0  0  0  0  0  0  0  0  0  0  0
   -0.0000   -3.6073    0.0000 N   0  0  0  0  0  0  0  0  0  0  0  0
    1.2135   -2.7256    0.0000 O   0  0  0  0  0  0  0  0  0  0  0  0
    0.7500   -1.2990    0.0000 C   0  0  0  0  0  0  0  0  0  0  0  0
    1.5000    0.0000    0.0000 C   0  0  0  0  0  0  0  0  0  0  0  0
    0.7500    1.2990    0.0000 C   0  0  0  0  0  0  0  0  0  0  0  0
    1.5000    2.5981    0.0000 F   0  0  0  0  0  0  0  0  0  0  0  0
   -0.7500    1.2990    0.0000 C   0  0  0  0  0  0  0  0  0  0  0  0
   -1.5000    0.0000    0.0000 C   0  0  0  0  0  0  0  0  0  0  0  0
   -0.7500   -1.2990    0.0000 C   0  0  0  0  0  0  0  0  0  0  0  0
  -16.2822   -4.8900    0.0000 C   0  0  0  0  0  0  0  0  0  0  0  0
  -16.5941   -6.3572    0.0000 O   0  0  0  0  0  0  0  0  0  0  0  0
  -17.3969   -3.8863    0.0000 C   0  0  0  0  0  0  0  0  0  0  0  0
  1  2  1  0
  2  3  1  0
  3  4  2  0
  4  5  1  0
  5  6  2  0
  6  7  1  0
  7  8  2  0
  8  9  1  0
  9 10  1  0
 10 11  1  0
 11 12  1  0
 12 13  1  0
 13 14  1  0
 14 15  1  0
 15 16  1  0
 16 17  1  0
 17 18  1  0
 16 19  1  0
 19 20  2  0
 20 21  1  0
 21 22  1  0
 22 23  2  0
 23 24  1  0
 24 25  1  0
 24 26  2  0
 26 27  1  0
 27 28  2  0
  5 29  1  0
 29 30  2  0
 29 31  1  0
  8  3  1  0
 18 13  1  0
 28 19  1  0
 28 22  1  0
M  END
$$$$
1817518
     RDKit          2D

 37 40  0  0  0  0  0  0  0  0999 V2000
   -9.6403    1.3658    0.0000 C   0  0  0  0  0  0  0  0  0  0  0  0
   -8.5256    0.3621    0.0000 O   0  0  0  0  0  0  0  0  0  0  0  0
   -7.0990    0.8256    0.0000 C   0  0  0  0  0  0  0  0  0  0  0  0
   -6.7871    2.2929    0.0000 C   0  0  0  0  0  0  0  0  0  0  0  0
   -5.3605    2.7564    0.0000 C   0  0  0  0  0  0  0  0  0  0  0  0
   -5.0487    4.2236    0.0000 N   0  0  0  0  0  0  0  0  0  0  0  0
   -4.0576    4.6858    0.0000 C   0  0  0  0  0  0  0  0  0  0  0  0
   -6.1634    5.2273    0.0000 C   0  0  0  0  0  0  0  0  0  0  0  0
   -5.8515    6.6945    0.0000 C   0  0  0  0  0  0  0  0  0  0  0  0
   -6.9662    7.6982    0.0000 N   0  0  0  0  0  0  0  0  0  0  0  0
   -6.6544    9.1654    0.0000 C   0  0  0  0  0  0  0  0  0  0  0  0
   -8.3928    7.2347    0.0000 C   0  0  0  0  0  0  0  0  0  0  0  0
   -4.2458    1.7527    0.0000 C   0  0  0  0  0  0  0  0  0  0  0  0
   -2.8192    2.2162    0.0000 N   0  0  0  0  0  0  0  0  0  0  0  0
   -2.5074    3.6834    0.0000 C   0  0  0  0  0  0  0  0  0  0  0  0
   -3.2247    4.5087    0.0000 O   0  0  0  0  0  0  0  0  0  0  0  0
   -1.0808    4.1470    0.0000 C   0  0  0  0  0  0  0  0  0  0  0  0
   -0.7689    5.6142    0.0000 C   0  0  0  0  0  0  0  0  0  0  0  0
   -4.5577    0.2855    0.0000 C   0  0  0  0  0  0  0  0  0  0  0  0
   -5.9843   -0.1781    0.0000 C   0  0  0  0  0  0  0  0  0  0  0  0
   -6.2961   -1.6453    0.0000 N   0  0  0  0  0  0  0  0  0  0  0  0
   -5.1814   -2.6490    0.0000 C   0  0  0  0  0  0  0  0  0  0  0  0
   -5.4933   -4.1162    0.0000 N   0  0  0  0  0  0  0  0  0  0  0  0
   -4.3786   -5.1199    0.0000 C   0  0  0  0  0  0  0  0  0  0  0  0
   -2.9520   -4.6564    0.0000 C   0  0  0  0  0  0  0  0  0  0  0  0
   -2.6401   -3.1891    0.0000 C   0  0  0  0  0  0  0  0  0  0  0  0
   -3.7548   -2.1855    0.0000 N   0  0  0  0  0  0  0  0  0  0  0  0
   -1.2135   -2.7256    0.0000 C   0  0  0  0  0  0  0  0  0  0  0  0
   -0.0000   -3.6073    0.0000 C   0  0  0  0  0  0  0  0  0  0  0  0
    1.2135   -2.7256    0.0000 N   0  0  0  0  0  0  0  0  0  0  0  0
    2.6401   -3.1891    0.0000 C   0  0  0  0  0  0  0  0  0  0  0  0
    0.7500   -1.2990    0.0000 C   0  0  0  0  0  0  0  0  0  0  0  0
    1.5000    0.0000    0.0000 C   0  0  0  0  0  0  0  0  0  0  0  0
    0.7500    1.2990    0.0000 C   0  0  0  0  0  0  0  0  0  0  0  0
   -0.7500    1.2990    0.0000 C   0  0  0  0  0  0  0  0  0  0  0  0
   -1.5000    0.0000    0.0000 C   0  0  0  0  0  0  0  0  0  0  0  0
   -0.7500   -1.2990    0.0000 C   0  0  0  0  0  0  0  0  0  0  0  0
  1  2  1  0
  2  3  1  0
  3  4  2  0
  4  5  1  0
  5  6  1  0
  6  7  1  0
  6  8  1  0
  8  9  1  0
  9 10  1  0
 10 11  1  0
 10 12  1  0
  5 13  2  0
 13 14  1  0
 14 15  1  0
 15 16  2  0
 15 17  1  0
 17 18  2  0
 13 19  1  0
 19 20  2  0
 20 21  1  0
 21 22  1  0
 22 23  2  0
 23 24  1  0
 24 25  2  0
 25 26  1  0
 26 27  2  0
 26 28  1  0
 28 29  2  0
 29 30  1  0
 30 31  1  0
 30 32  1  0
 32 33  2  0
 33 34  1  0
 34 35  2  0
 35 36  1  0
 36 37  2  0
 20  3  1  0
 27 22  1  0
 37 28  1  0
 37 32  1  0
M  END
$$$$
1926912
     RDKit          2D

 42 44  0  0  0  0  0  0  0  0999 V2000
   -9.6403    1.3658    0.0000 C   0  0  0  0  0  0  0  0  0  0  0  0
   -8.5256    0.3621    0.0000 O   0  0  0  0  0  0  0  0  0  0  0  0
   -7.0990    0.8256    0.0000 C   0  0  0  0  0  0  0  0  0  0  0  0
   -6.7871    2.2929    0.0000 C   0  0  0  0  0  0  0  0  0  0  0  0
   -5.3605    2.7564    0.0000 C   0  0  0  0  0  0  0  0  0  0  0  0
   -5.0487    4.2236    0.0000 N   0  0  0  0  0  0  0  0  0  0  0  0
   -4.0576    4.6858    0.0000 C   0  0  0  0  0  0  0  0  0  0  0  0
   -6.1634    5.2273    0.0000 C   0  0  0  0  0  0  0  0  0  0  0  0
   -5.8515    6.6945    0.0000 C   0  0  0  0  0  0  0  0  0  0  0  0
   -6.9662    7.6982    0.0000 N   0  0  0  0  0  0  0  0  0  0  0  0
   -6.6544    9.1654    0.0000 C   0  0  0  0  0  0  0  0  0  0  0  0
   -8.3928    7.2347    0.0000 C   0  0  0  0  0  0  0  0  0  0  0  0
   -4.2458    1.7527    0.0000 C   0  0  0  0  0  0  0  0  0  0  0  0
   -2.8192    2.2162    0.0000 N   0  0  0  0  0  0  0  0  0  0  0  0
   -2.5074    3.6834    0.0000 C   0  0  0  0  0  0  0  0  0  0  0  0
   -3.2247    4.5087    0.0000 O   0  0  0  0  0  0  0  0  0  0  0  0
   -1.0808    4.1470    0.0000 C   0  0  0  0  0  0  0  0  0  0  0  0
   -0.7689    5.6142    0.0000 C   0  0  0  0  0  0  0  0  0  0  0  0
   -4.5577    0.2855    0.0000 C   0  0  0  0  0  0  0  0  0  0  0  0
   -5.9843   -0.1781    0.0000 C   0  0  0  0  0  0  0  0  0  0  0  0
   -6.2961   -1.6453    0.0000 N   0  0  0  0  0  0  0  0  0  0  0  0
   -5.1814   -2.6490    0.0000 C   0  0  0  0  0  0  0  0  0  0  0  0
   -5.4933   -4.1162    0.0000 N   0  0  0  0  0  0  0  0  0  0  0  0
   -4.3786   -5.1199    0.0000 C   0  0  0  0  0  0  0  0  0  0  0  0
   -2.9520   -4.6564    0.0000 C   0  0  0  0  0  0  0  0  0  0  0  0
   -2.6401   -3.1891    0.0000 C   0  0  0  0  0  0  0  0  0  0  0  0
   -3.7548   -2.1855    0.0000 N   0  0  0  0  0  0  0  0  0  0  0  0
   -1.2135   -2.7256    0.0000 C   0  0  0  0  0  0  0  0  0  0  0  0
   -0.0000   -3.6073    0.0000 C   0  0  0  0  0  0  0  0  0  0  0  0
    1.2135   -2.7256    0.0000 N   0  0  0  0  0  0  0  0  0  0  0  0
    2.6401   -3.1891    0.0000 C   0  0  0  0  0  0  0  0  0  0  0  0
    0.7500   -1.2990    0.0000 C   0  0  0  0  0  0  0  0  0  0  0  0
    1.5000    0.0000    0.0000 C   0  0  0  0  0  0  0  0  0  0  0  0
    0.7500    1.2990    0.0000 C   0  0  0  0  0  0  0  0  0  0  0  0
   -0.7500    1.2990    0.0000 C   0  0  0  0  0  0  0  0  0  0  0  0
   -1.5000    0.0000    0.0000 C   0  0  0  0  0  0  0  0  0  0  0  0
   -0.7500   -1.2990    0.0000 C   0  0  0  0  0  0  0  0  0  0  0  0
    3.6401    0.0000    0.0000 C   0  0  0  0  0  0  0  0  0  0  0  0
    4.9391    0.7500    0.0000 S   0  0  0  0  0  0  0  0  0  0  0  0
    5.6891   -0.5490    0.0000 O   0  0  0  0  0  0  0  0  0  0  0  0
    4.1891    2.0490    0.0000 O   0  0  0  0  0  0  0  0  0  0  0  0
    6.2382    1.5000    0.0000 O   0  0  0  0  0  0  0  0  0  0  0  0
  1  2  1  0
  2  3  1  0
  3  4  2  0
  4  5  1  0
  5  6  1  0
  6  7  1  0
  6  8  1  0
  8  9  1  0
  9 10  1  0
 10 11  1  0
 10 12  1  0
  5 13  2  0
 13 14  1  0
 14 15  1  0
 15 16  2  0
 15 17  1  0
 17 18  2  0
 13 19  1  0
 19 20  2  0
 20 21  1  0
 21 22  1  0
 22 23  2  0
 23 24  1  0
 24 25  2  0
 25 26  1  0
 26 27  2  0
 26 28  1  0
 28 29  2  0
 29 30  1  0
 30 31  1  0
 30 32  1  0
 32 33  2  0
 33 34  1  0
 34 35  2  0
 35 36  1  0
 36 37  2  0
 38 39  1  0
 39 40  2  0
 39 41  2  0
 39 42  1  0
 20  3  1  0
 27 22  1  0
 37 28  1  0
 37 32  1  0
M  END
$$$$
10389
     RDKit          2D

 19 20  0  0  0  0  0  0  0  0999 V2000
   -3.0000   -5.1962    0.0000 C   0  0  0  0  0  0  0  0  0  0  0  0
   -1.5000   -5.1962    0.0000 O   0  0  0  0  0  0  0  0  0  0  0  0
   -0.7500   -3.8971    0.0000 C   0  0  0  0  0  0  0  0  0  0  0  0
    0.7500   -3.8971    0.0000 C   0  0  0  0  0  0  0  0  0  0  0  0
    1.5000   -2.5981    0.0000 C   0  0  0  0  0  0  0  0  0  0  0  0
    3.0000   -2.5981    0.0000 N   0  0  0  0  0  0  0  0  0  0  0  0
    3.7500   -3.8971    0.0000 C   0  0  0  0  0  0  0  0  0  0  0  0
    5.2500   -3.8971    0.0000 C   0  0  0  0  0  0  0  0  0  0  0  0
    3.0000   -5.1962    0.0000 C   0  0  0  0  0  0  0  0  0  0  0  0
    3.7500   -6.4952    0.0000 C   0  0  0  0  0  0  0  0  0  0  0  0
    3.0000   -7.7942    0.0000 C   0  0  0  0  0  0  0  0  0  0  0  0
    3.7500   -9.0933    0.0000 N   0  0  0  0  0  0  0  0  0  0  0  0
    0.7500   -1.2990    0.0000 C   0  0  0  0  0  0  0  0  0  0  0  0
    1.5000    0.0000    0.0000 N   0  0  0  0  0  0  0  0  0  0  0  0
    0.7500    1.2990    0.0000 C   0  0  0  0  0  0  0  0  0  0  0  0
   -0.7500    1.2990    0.0000 C   0  0  0  0  0  0  0  0  0  0  0  0
   -1.5000    0.0000    0.0000 C   0  0  0  0  0  0  0  0  0  0  0  0
   -0.7500   -1.2990    0.0000 C   0  0  0  0  0  0  0  0  0  0  0  0
   -1.5000   -2.5981    0.0000 C   0  0  0  0  0  0  0  0  0  0  0  0
  1  2  1  0
  2  3  1  0
  3  4  2  0
  4  5  1  0
  5  6  1  0
  6  7  1  0
  7  8  1  0
  7  9  1  0
  9 10  1  0
 10 11  1  0
 11 12  1  0
  5 13  2  0
 13 14  1  0
 14 15  2  0
 15 16  1  0
 16 17  2  0
 17 18  1  0
 18 19  2  0
 19  3  1  0
 18 13  1  0
M  END
$$$$
58232
     RDKit          2D

 29 28  0  0  0  0  0  0  0  0999 V2000
   -3.0000   -5.1962    0.0000 C   0  0  0  0  0  0  0  0  0  0  0  0
   -1.5000   -5.1962    0.0000 O   0  0  0  0  0  0  0  0  0  0  0  0
   -0.7500   -3.8971    0.0000 C   0  0  0  0  0  0  0  0  0  0  0  0
    0.7500   -3.8971    0.0000 C   0  0  0  0  0  0  0  0  0  0  0  0
    1.5000   -2.5981    0.0000 C   0  0  0  0  0  0  0  0  0  0  0  0
    3.0000   -2.5981    0.0000 N   0  0  0  0  0  0  0  0  0  0  0  0
    3.7500   -3.8971    0.0000 C   0  0  0  0  0  0  0  0  0  0  0  0
    5.2500   -3.8971    0.0000 C   0  0  0  0  0  0  0  0  0  0  0  0
    3.0000   -5.1962    0.0000 C   0  0  0  0  0  0  0  0  0  0  0  0
    3.7500   -6.4952    0.0000 C   0  0  0  0  0  0  0  0  0  0  0  0
    3.0000   -7.7942    0.0000 C   0  0  0  0  0  0  0  0  0  0  0  0
    3.7500   -9.0933    0.0000 N   0  0  0  0  0  0  0  0  0  0  0  0
    0.7500   -1.2990    0.0000 C   0  0  0  0  0  0  0  0  0  0  0  0
    1.5000    0.0000    0.0000 N   0  0  0  0  0  0  0  0  0  0  0  0
    0.7500    1.2990    0.0000 C   0  0  0  0  0  0  0  0  0  0  0  0
   -0.7500    1.2990    0.0000 C   0  0  0  0  0  0  0  0  0  0  0  0
   -1.5000    0.0000    0.0000 C   0  0  0  0  0  0  0  0  0  0  0  0
   -0.7500   -1.2990    0.0000 C   0  0  0  0  0  0  0  0  0  0  0  0
   -1.5000   -2.5981    0.0000 C   0  0  0  0  0  0  0  0  0  0  0  0
    6.2500    0.0000    0.0000 O   0  0  0  0  0  0  0  0  0  0  0  0
    7.5490    0.7500    0.0000 P   0  0  0  0  0  0  0  0  0  0  0  0
    8.8481    1.5000    0.0000 O   0  0  0  0  0  0  0  0  0  0  0  0
    6.7990    2.0490    0.0000 O   0  0  0  0  0  0  0  0  0  0  0  0
    8.2990   -0.5490    0.0000 O   0  0  0  0  0  0  0  0  0  0  0  0
    0.0000    2.8481    0.0000 O   0  0  0  0  0  0  0  0  0  0  0  0
    1.2990    3.5981    0.0000 P   0  0  0  0  0  0  0  0  0  0  0  0
    2.5981    4.3481    0.0000 O   0  0  0  0  0  0  0  0  0  0  0  0
    0.5490    4.8971    0.0000 O   0  0  0  0  0  0  0  0  0  0  0  0
    2.0490    2.2990    0.0000 O   0  0  0  0  0  0  0  0  0  0  0  0
  1  2  1  0
  2  3  1  0
  3  4  2  0
  4  5  1  0
  5  6  1  0
  6  7  1  0
  7  8  1  0
  7  9  1  0
  9 10  1  0
 10 11  1  0
 11 12  1  0
  5 13  2  0
 13 14  1  0
 14 15  2  0
 15 16  1  0
 16 17  2  0
 17 18  1  0
 18 19  2  0
 20 21  1  0
 21 22  2  0
 21 23  1  0
 21 24  1  0
 25 26  1  0
 26 27  2  0
 26 28  1  0
 26 29  1  0
 19  3  1  0
 18 13  1  0
M  END
$$$$
62111
     RDKit          2D

 36 39  0  0  0  0  0  0  0  0999 V2000
   -3.7500   -6.4952    0.0000 C   0  0  0  0  0  0  0  0  0  0  0  0
   -3.0000   -5.1962    0.0000 O   0  0  0  0  0  0  0  0  0  0  0  0
   -1.5000   -5.1962    0.0000 C   0  0  0  0  0  0  0  0  0  0  0  0
   -0.7500   -3.8971    0.0000 C   0  0  0  0  0  0  0  0  0  0  0  0
    0.7500   -3.8971    0.0000 C   0  0  0  0  0  0  0  0  0  0  0  0
    1.5000   -2.5981    0.0000 N   0  0  0  0  0  0  0  0  0  0  0  0
    0.7500   -1.2990    0.0000 C   0  0  0  0  0  0  0  0  0  0  0  0
    1.5000    0.0000    0.0000 C   0  0  0  0  0  0  0  0  0  0  0  0
    0.7500    1.2990    0.0000 C   0  0  0  0  0  0  0  0  0  0  0  0
   -0.7500    1.2990    0.0000 N   0  0  0  0  0  0  0  0  0  0  0  0
   -1.5000    0.0000    0.0000 C   0  0  0  0  0  0  0  0  0  0  0  0
   -3.0000    0.0000    0.0000 C   0  0  0  0  0  0  0  0  0  0  0  0
   -3.7500   -1.2990    0.0000 C   0  0  0  0  0  0  0  0  0  0  0  0
   -5.2500   -1.2990    0.0000 O   0  0  0  0  0  0  0  0  0  0  0  0
   -6.0000    0.0000    0.0000 C   0  0  0  0  0  0  0  0  0  0  0  0
   -7.5000   -0.0000    0.0000 C   0  0  0  0  0  0  0  0  0  0  0  0
   -8.2500    1.2990    0.0000 C   0  0  0  0  0  0  0  0  0  0  0  0
   -9.7500    1.2990    0.0000 N   0  0  0  0  0  0  0  0  0  0  0  0
  -10.5000    2.5981    0.0000 C   0  0  0  0  0  0  0  0  0  0  0  0
  -12.0000    2.5981    0.0000 C   0  0  0  0  0  0  0  0  0  0  0  0
  -12.7500    1.2990    0.0000 N   0  0  0  0  0  0  0  0  0  0  0  0
  -14.2500    1.2990    0.0000 C   0  0  0  0  0  0  0  0  0  0  0  0
  -12.0000    0.0000    0.0000 C   0  0  0  0  0  0  0  0  0  0  0  0
  -10.5000    0.0000    0.0000 C   0  0  0  0  0  0  0  0  0  0  0  0
   -3.0000   -2.5981    0.0000 C   0  0  0  0  0  0  0  0  0  0  0  0
   -3.7500   -3.8971    0.0000 O   0  0  0  0  0  0  0  0  0  0  0  0
   -5.2500   -3.8971    0.0000 C   0  0  0  0  0  0  0  0  0  0  0  0
   -1.5000   -2.5981    0.0000 C   0  0  0  0  0  0  0  0  0  0  0  0
   -0.7500   -1.2990    0.0000 C   0  0  0  0  0  0  0  0  0  0  0  0
    3.0000    0.0000    0.0000 C   0  0  0  0  0  0  0  0  0  0  0  0
    4.5000    0.0000    0.0000 N   0  0  0  0  0  0  0  0  0  0  0  0
    1.5000   -5.1962    0.0000 C   0  0  0  0  0  0  0  0  0  0  0  0
    3.0000   -5.1962    0.0000 Cl  0  0  0  0  0  0  0  0  0  0  0  0
    0.7500   -6.4952    0.0000 C   0  0  0  0  0  0  0  0  0  0  0  0
   -0.7500   -6.4952    0.0000 C   0  0  0  0  0  0  0  0  0  0  0  0
   -1.5000   -7.7942    0.0000 Cl  0  0  0  0  0  0  0  0  0  0  0  0
  1  2  1  0
  2  3  1  0
  3  4  2  0
  4  5  1  0
  5  6  1  0
  6  7  1  0
  7  8  2  0
  8  9  1  0
  9 10  2  0
 10 11  1  0
 11 12  2  0
 12 13  1  0
 13 14  1  0
 14 15  1  0
 15 16  1  0
 16 17  1  0
 17 18  1  0
 18 19  1  0
 19 20  1  0
 20 21  1  0
 21 22  1  0
 21 23  1  0
 23 24  1  0
 13 25  2  0
 25 26  1  0
 26 27  1  0
 25 28  1  0
 28 29  2  0
  8 30  1  0
 30 31  3  0
  5 32  2  0
 32 33  1  0
 32 34  1  0
 34 35  2  0
 35 36  1  0
 35  3  1  0
 29  7  1  0
 29 11  1  0
 24 18  1  0
M  END
$$$$
33576
     RDKit          2D

 30 33  0  0  0  0  0  0  0  0999 V2000
   -5.2500   -3.8971    0.0000 C   0  0  0  0  0  0  0  0  0  0  0  0
   -3.7500   -3.8971    0.0000 O   0  0  0  0  0  0  0  0  0  0  0  0
   -3.0000   -2.5981    0.0000 C   0  0  0  0  0  0  0  0  0  0  0  0
   -1.5000   -2.5981    0.0000 C   0  0  0  0  0  0  0  0  0  0  0  0
   -0.7500   -1.2990    0.0000 C   0  0  0  0  0  0  0  0  0  0  0  0
    0.7500   -1.2990    0.0000 C   0  0  0  0  0  0  0  0  0  0  0  0
    1.5000   -2.5981    0.0000 N   0  0  0  0  0  0  0  0  0  0  0  0
    3.0000   -2.5981    0.0000 C   0  0  0  0  0  0  0  0  0  0  0  0
    3.7500   -3.8971    0.0000 C   0  0  0  0  0  0  0  0  0  0  0  0
    5.2500   -3.8971    0.0000 C   0  0  0  0  0  0  0  0  0  0  0  0
    6.0000   -2.5981    0.0000 C   0  0  0  0  0  0  0  0  0  0  0  0
    7.5000   -2.5981    0.0000 Br  0  0  0  0  0  0  0  0  0  0  0  0
    5.2500   -1.2990    0.0000 C   0  0  0  0  0  0  0  0  0  0  0  0
    3.7500   -1.2990    0.0000 C   0  0  0  0  0  0  0  0  0  0  0  0
    3.0000   -0.0000    0.0000 F   0  0  0  0  0  0  0  0  0  0  0  0
    1.5000    0.0000    0.0000 N   0  0  0  0  0  0  0  0  0  0  0  0
    0.7500    1.2990    0.0000 C   0  0  0  0  0  0  0  0  0  0  0  0
   -0.7500    1.2990    0.0000 N   0  0  0  0  0  0  0  0  0  0  0  0
   -1.5000    0.0000    0.0000 C   0  0  0  0  0  0  0  0  0  0  0  0
   -3.0000    0.0000    0.0000 C   0  0  0  0  0  0  0  0  0  0  0  0
   -3.7500   -1.2990    0.0000 C   0  0  0  0  0  0  0  0  0  0  0  0
   -5.2500   -1.2990    0.0000 O   0  0  0  0  0  0  0  0  0  0  0  0
   -6.0000    0.0000    0.0000 C   0  0  0  0  0  0  0  0  0  0  0  0
   -7.5000    0.0000    0.0000 C   0  0  0  0  0  0  0  0  0  0  0  0
   -8.2500    1.2990    0.0000 C   0  0  0  0  0  0  0  0  0  0  0  0
   -9.7500    1.2990    0.0000 C   0  0  0  0  0  0  0  0  0  0  0  0
  -10.5000    0.0000    0.0000 N   0  0  0  0  0  0  0  0  0  0  0  0
  -12.0000    0.0000    0.0000 C   0  0  0  0  0  0  0  0  0  0  0  0
   -9.7500   -1.2990    0.0000 C   0  0  0  0  0  0  0  0  0  0  0  0
   -8.2500   -1.2990    0.0000 C   0  0  0  0  0  0  0  0  0  0  0  0
  1  2  1  0
  2  3  1  0
  3  4  2  0
  4  5  1  0
  5  6  2  0
  6  7  1  0
  7  8  1  0
  8  9  2  0
  9 10  1  0
 10 11  2  0
 11 12  1  0
 11 13  1  0
 13 14  2  0
 14 15  1  0
  6 16  1  0
 16 17  2  0
 17 18  1  0
 18 19  2  0
 19 20  1  0
 20 21  2  0
 21 22  1  0
 22 23  1  0
 23 24  1  0
 24 25  1  0
 25 26  1  0
 26 27  1  0
 27 28  1  0
 27 29  1  0
 29 30  1  0
 21  3  1  0
 19  5  1  0
 14  8  1  0
 30 24  1  0
M  END
$$$$
9372
     RDKit          2D

 28 31  0  0  0  0  0  0  0  0999 V2000
    3.7500   -1.2990    0.0000 C   0  0  0  0  0  0  0  0  0  0  0  0
    3.0000    0.0000    0.0000 O   0  0  0  0  0  0  0  0  0  0  0  0
    1.5000    0.0000    0.0000 C   0  0  0  0  0  0  0  0  0  0  0  0
    0.7500   -1.2990    0.0000 C   0  0  0  0  0  0  0  0  0  0  0  0
   -0.7500   -1.2990    0.0000 C   0  0  0  0  0  0  0  0  0  0  0  0
   -1.7537   -2.4138    0.0000 C   0  0  0  0  0  0  0  0  0  0  0  0
   -3.1240   -1.8037    0.0000 C   0  0  0  0  0  0  0  0  0  0  0  0
   -4.4231   -2.5537    0.0000 C   0  0  0  0  0  0  0  0  0  0  0  0
   -5.7221   -1.8037    0.0000 C   0  0  0  0  0  0  0  0  0  0  0  0
   -5.7221   -0.3037    0.0000 C   0  0  0  0  0  0  0  0  0  0  0  0
   -7.0211    0.4463    0.0000 C   0  0  0  0  0  0  0  0  0  0  0  0
   -8.3202   -0.3037    0.0000 N   0  0  0  0  0  0  0  0  0  0  0  0
   -9.6192    0.4463    0.0000 C   0  0  0  0  0  0  0  0  0  0  0  0
   -9.6192    1.9463    0.0000 C   0  0  0  0  0  0  0  0  0  0  0  0
   -8.3202    2.6963    0.0000 C   0  0  0  0  0  0  0  0  0  0  0  0
   -8.3202    4.1963    0.0000 C   0  0  0  0  0  0  0  0  0  0  0  0
   -9.6192    4.9463    0.0000 C   0  0  0  0  0  0  0  0  0  0  0  0
  -10.9182    4.1963    0.0000 C   0  0  0  0  0  0  0  0  0  0  0  0
  -10.9182    2.6963    0.0000 C   0  0  0  0  0  0  0  0  0  0  0  0
   -8.3202   -1.8037    0.0000 C   0  0  0  0  0  0  0  0  0  0  0  0
   -7.0211   -2.5537    0.0000 C   0  0  0  0  0  0  0  0  0  0  0  0
   -2.9672   -0.3119    0.0000 C   0  0  0  0  0  0  0  0  0  0  0  0
   -4.0819    0.6918    0.0000 O   0  0  0  0  0  0  0  0  0  0  0  0
   -1.5000    0.0000    0.0000 C   0  0  0  0  0  0  0  0  0  0  0  0
   -0.7500    1.2990    0.0000 C   0  0  0  0  0  0  0  0  0  0  0  0
    0.7500    1.2990    0.0000 C   0  0  0  0  0  0  0  0  0  0  0  0
    1.5000    2.5981    0.0000 O   0  0  0  0  0  0  0  0  0  0  0  0
    0.7500    3.8971    0.0000 C   0  0  0  0  0  0  0  0  0  0  0  0
  1  2  1  0
  2  3  1  0
  3  4  2  0
  4  5  1  0
  5  6  1  0
  6  7  1  0
  7  8  1  0
  8  9  1  0
  9 10  1  0
 10 11  1  0
 11 12  1  0
 12 13  1  0
 13 14  1  0
 14 15  2  0
 15 16  1  0
 16 17  2  0
 17 18  1  0
 18 19  2  0
 12 20  1  0
 20 21  1  0
  7 22  1  0
 22 23  2  0
 22 24  1  0
 24 25  1  0
 25 26  2  0
 26 27  1  0
 27 28  1  0
 26  3  1  0
 24  5  2  0
 21  9  1  0
 19 14  1  0
M  END
$$$$
448872
     RDKit          2D

 34 37  0  0  0  0  0  0  0  0999 V2000
    4.1385    4.6502    0.0000 C   0  0  0  0  0  0  0  0  0  0  0  0
    2.6761    4.9840    0.0000 O   0  0  0  0  0  0  0  0  0  0  0  0
    1.6559    3.8844    0.0000 C   0  0  0  0  0  0  0  0  0  0  0  0
    2.0980    2.4510    0.0000 C   0  0  0  0  0  0  0  0  0  0  0  0
    1.0777    1.3515    0.0000 C   0  0  0  0  0  0  0  0  0  0  0  0
    1.7286    0.0000    0.0000 C   0  0  0  0  0  0  0  0  0  0  0  0
    1.0777   -1.3515    0.0000 C   0  0  0  0  0  0  0  0  0  0  0  0
   -0.3846   -1.6852    0.0000 N   0  0  0  0  0  0  0  0  0  0  0  0
   -0.7184   -3.1476    0.0000 C   0  0  0  0  0  0  0  0  0  0  0  0
    0.3812   -4.1679    0.0000 C   0  0  0  0  0  0  0  0  0  0  0  0
    0.0474   -5.6303    0.0000 C   0  0  0  0  0  0  0  0  0  0  0  0
    1.1469   -6.6505    0.0000 N   0  0  0  0  0  0  0  0  0  0  0  0
    0.8132   -8.1129    0.0000 C   0  0  0  0  0  0  0  0  0  0  0  0
    2.5803   -6.2084    0.0000 C   0  0  0  0  0  0  0  0  0  0  0  0
    3.6799   -7.2287    0.0000 C   0  0  0  0  0  0  0  0  0  0  0  0
    5.1788   -7.1726    0.0000 C   0  0  0  0  0  0  0  0  0  0  0  0
    5.2349   -8.6715    0.0000 C   0  0  0  0  0  0  0  0  0  0  0  0
    6.0330   -9.9416    0.0000 C   0  0  0  0  0  0  0  0  0  0  0  0
    5.3321  -11.2678    0.0000 C   0  0  0  0  0  0  0  0  0  0  0  0
    6.1301  -12.5379    0.0000 O   0  0  0  0  0  0  0  0  0  0  0  0
    5.4292  -13.8640    0.0000 C   0  0  0  0  0  0  0  0  0  0  0  0
    3.8331  -11.3239    0.0000 C   0  0  0  0  0  0  0  0  0  0  0  0
    3.1322  -12.6500    0.0000 O   0  0  0  0  0  0  0  0  0  0  0  0
    1.6333  -12.7061    0.0000 C   0  0  0  0  0  0  0  0  0  0  0  0
    3.0351  -10.0538    0.0000 C   0  0  0  0  0  0  0  0  0  0  0  0
    3.7360   -8.7276    0.0000 C   0  0  0  0  0  0  0  0  0  0  0  0
   -1.5574   -0.7500    0.0000 C   0  0  0  0  0  0  0  0  0  0  0  0
   -2.9088   -1.4008    0.0000 O   0  0  0  0  0  0  0  0  0  0  0  0
   -1.5574    0.7500    0.0000 C   0  0  0  0  0  0  0  0  0  0  0  0
   -0.3846    1.6852    0.0000 C   0  0  0  0  0  0  0  0  0  0  0  0
   -0.8268    3.1186    0.0000 C   0  0  0  0  0  0  0  0  0  0  0  0
    0.1935    4.2182    0.0000 C   0  0  0  0  0  0  0  0  0  0  0  0
   -0.2487    5.6515    0.0000 O   0  0  0  0  0  0  0  0  0  0  0  0
   -1.7110    5.9853    0.0000 C   0  0  0  0  0  0  0  0  0  0  0  0
  1  2  1  0
  2  3  1  0
  3  4  2  0
  4  5  1  0
  5  6  1  0
  6  7  1  0
  7  8  1  0
  8  9  1  0
  9 10  1  0
 10 11  1  0
 11 12  1  0
 12 13  1  0
 12 14  1  0
 15 14  1  1
 15 16  1  0
 16 17  1  0
 17 18  2  0
 18 19  1  0
 19 20  1  0
 20 21  1  0
 19 22  2  0
 22 23  1  0
 23 24  1  0
 22 25  1  0
 25 26  2  0
  8 27  1  0
 27 28  2  0
 27 29  1  0
 29 30  1  0
 30 31  1  0
 31 32  2  0
 32 33  1  0
 33 34  1  0
 32  3  1  0
 30  5  2  0
 26 15  1  0
 26 17  1  0
M  END
$$$$
193281
     RDKit          2D

 23 25  0  0  0  0  0  0  0  0999 V2000
    3.7500   -1.2990    0.0000 C   0  0  0  0  0  0  0  0  0  0  0  0
    3.0000    0.0000    0.0000 O   0  0  0  0  0  0  0  0  0  0  0  0
    1.5000    0.0000    0.0000 C   0  0  0  0  0  0  0  0  0  0  0  0
    0.7500   -1.2990    0.0000 C   0  0  0  0  0  0  0  0  0  0  0  0
   -0.7500   -1.2990    0.0000 C   0  0  0  0  0  0  0  0  0  0  0  0
   -1.5000   -2.5981    0.0000 C   0  0  0  0  0  0  0  0  0  0  0  0
   -3.0000   -2.5981    0.0000 C   0  0  0  0  0  0  0  0  0  0  0  0
   -3.7500   -1.2990    0.0000 N   0  0  0  0  0  0  0  0  0  0  0  0
   -5.2500   -1.2990    0.0000 C   0  0  0  0  0  0  0  0  0  0  0  0
   -6.0000    0.0000    0.0000 C   0  0  0  0  0  0  0  0  0  0  0  0
   -7.5000    0.0000    0.0000 C   0  0  0  0  0  0  0  0  0  0  0  0
   -8.2500    1.2990    0.0000 C   0  0  0  0  0  0  0  0  0  0  0  0
   -9.7500    1.2990    0.0000 C   0  0  0  0  0  0  0  0  0  0  0  0
   -7.5000    2.5981    0.0000 C   0  0  0  0  0  0  0  0  0  0  0  0
   -5.2500    1.2990    0.0000 C   0  0  0  0  0  0  0  0  0  0  0  0
   -6.0000    2.5981    0.0000 O   0  0  0  0  0  0  0  0  0  0  0  0
   -3.7500    1.2990    0.0000 C   0  0  0  0  0  0  0  0  0  0  0  0
   -3.0000    0.0000    0.0000 C   0  0  0  0  0  0  0  0  0  0  0  0
   -1.5000    0.0000    0.0000 C   0  0  0  0  0  0  0  0  0  0  0  0
   -0.7500    1.2990    0.0000 C   0  0  0  0  0  0  0  0  0  0  0  0
    0.7500    1.2990    0.0000 C   0  0  0  0  0  0  0  0  0  0  0  0
    1.5000    2.5981    0.0000 O   0  0  0  0  0  0  0  0  0  0  0  0
    0.7500    3.8971    0.0000 C   0  0  0  0  0  0  0  0  0  0  0  0
  1  2  1  0
  2  3  1  0
  3  4  2  0
  4  5  1  0
  5  6  1  0
  6  7  1  0
  7  8  1  0
  8  9  1  0
  9 10  1  0
 10 11  1  0
 11 12  1  0
 12 13  1  0
 12 14  1  0
 10 15  1  0
 15 16  2  0
 15 17  1  0
 17 18  1  0
 18 19  1  0
 19 20  1  0
 20 21  2  0
 21 22  1  0
 22 23  1  0
 21  3  1  0
 19  5  2  0
 18  8  1  0
M  END
$$$$
340684
     RDKit          2D

 31 33  0  0  0  0  0  0  0  0999 V2000
    3.7500   -1.2990    0.0000 C   0  0  0  0  0  0  0  0  0  0  0  0
    3.0000    0.0000    0.0000 O   0  0  0  0  0  0  0  0  0  0  0  0
    1.5000    0.0000    0.0000 C   0  0  0  0  0  0  0  0  0  0  0  0
    0.7500   -1.2990    0.0000 C   0  0  0  0  0  0  0  0  0  0  0  0
   -0.7500   -1.2990    0.0000 C   0  0  0  0  0  0  0  0  0  0  0  0
   -1.5000   -2.5981    0.0000 N   0  0  0  0  0  0  0  0  0  0  0  0
   -3.0000   -2.5981    0.0000 C   0  0  0  0  0  0  0  0  0  0  0  0
   -3.7500   -1.2990    0.0000 C   0  0  0  0  0  0  0  0  0  0  0  0
   -5.2500   -1.2990    0.0000 C   0  0  0  0  0  0  0  0  0  0  0  0
   -6.0000   -2.5981    0.0000 O   0  0  0  0  0  0  0  0  0  0  0  0
   -6.0000    0.0000    0.0000 O   0  0  0  0  0  0  0  0  0  0  0  0
   -3.0000    0.0000    0.0000 C   0  0  0  0  0  0  0  0  0  0  0  0
   -3.7500    1.2990    0.0000 O   0  0  0  0  0  0  0  0  0  0  0  0
   -1.5000    0.0000    0.0000 C   0  0  0  0  0  0  0  0  0  0  0  0
   -0.7500    1.2990    0.0000 C   0  0  0  0  0  0  0  0  0  0  0  0
    0.7500    1.2990    0.0000 C   0  0  0  0  0  0  0  0  0  0  0  0
    1.5000    2.5981    0.0000 C   0  0  0  0  0  0  0  0  0  0  0  0
    3.0000    2.5981    0.0000 C   0  0  0  0  0  0  0  0  0  0  0  0
    3.7500    1.2990    0.0000 C   0  0  0  0  0  0  0  0  0  0  0  0
    5.2500    1.2990    0.0000 C   0  0  0  0  0  0  0  0  0  0  0  0
    6.0000    2.5981    0.0000 C   0  0  0  0  0  0  0  0  0  0  0  0
    5.2500    3.8971    0.0000 C   0  0  0  0  0  0  0  0  0  0  0  0
    6.0000    5.1962    0.0000 Cl  0  0  0  0  0  0  0  0  0  0  0  0
    3.7500    3.8971    0.0000 C   0  0  0  0  0  0  0  0  0  0  0  0
    3.0000    5.1962    0.0000 F   0  0  0  0  0  0  0  0  0  0  0  0
   -0.7500   -3.8971    0.0000 C   0  0  0  0  0  0  0  0  0  0  0  0
    0.7500   -3.8971    0.0000 C   0  0  0  0  0  0  0  0  0  0  0  0
    1.5000   -5.1962    0.0000 O   0  0  0  0  0  0  0  0  0  0  0  0
   -1.5000   -5.1962    0.0000 C   0  0  0  0  0  0  0  0  0  0  0  0
   -0.7500   -6.4952    0.0000 C   0  0  0  0  0  0  0  0  0  0  0  0
   -3.0000   -5.1962    0.0000 C   0  0  0  0  0  0  0  0  0  0  0  0
  1  2  1  0
  2  3  1  0
  3  4  2  0
  4  5  1  0
  5  6  1  0
  6  7  1  0
  7  8  2  0
  8  9  1  0
  9 10  2  0
  9 11  1  0
  8 12  1  0
 12 13  2  0
 12 14  1  0
 14 15  1  0
 15 16  2  0
 16 17  1  0
 17 18  1  0
 18 19  2  0
 19 20  1  0
 20 21  2  0
 21 22  1  0
 22 23  1  0
 22 24  2  0
 24 25  1  0
  6 26  1  0
 26 27  1  6
 27 28  1  0
 26 29  1  0
 29 30  1  0
 29 31  1  0
 16  3  1  0
 14  5  2  0
 24 18  1  0
M  END
$$$$
33667
     RDKit          2D

 28 30  0  0  0  0  0  0  0  0999 V2000
    3.7500   -1.2990    0.0000 C   0  0  0  0  0  0  0  0  0  0  0  0
    3.0000    0.0000    0.0000 O   0  0  0  0  0  0  0  0  0  0  0  0
    1.5000    0.0000    0.0000 C   0  0  0  0  0  0  0  0  0  0  0  0
    0.7500   -1.2990    0.0000 C   0  0  0  0  0  0  0  0  0  0  0  0
   -0.7500   -1.2990    0.0000 C   0  0  0  0  0  0  0  0  0  0  0  0
   -1.5000   -2.5981    0.0000 N   0  0  0  0  0  0  0  0  0  0  0  0
   -3.0000   -2.5981    0.0000 C   0  0  0  0  0  0  0  0  0  0  0  0
   -3.7500   -1.2990    0.0000 N   0  0  0  0  0  0  0  0  0  0  0  0
   -3.0000    0.0000    0.0000 C   0  0  0  0  0  0  0  0  0  0  0  0
   -3.7500    1.2990    0.0000 N   0  0  0  0  0  0  0  0  0  0  0  0
   -1.5000    0.0000    0.0000 C   0  0  0  0  0  0  0  0  0  0  0  0
   -0.7500    1.2990    0.0000 C   0  0  0  0  0  0  0  0  0  0  0  0
    0.7500    1.2990    0.0000 C   0  0  0  0  0  0  0  0  0  0  0  0
    1.5000    2.5981    0.0000 O   0  0  0  0  0  0  0  0  0  0  0  0
    3.0000    2.5981    0.0000 C   0  0  0  0  0  0  0  0  0  0  0  0
   -3.7500   -3.8971    0.0000 N   0  0  0  0  0  0  0  0  0  0  0  0
   -5.2500   -3.8971    0.0000 C   0  0  0  0  0  0  0  0  0  0  0  0
   -3.0000   -5.1962    0.0000 C   0  0  0  0  0  0  0  0  0  0  0  0
   -3.7500   -6.4952    0.0000 C   0  0  0  0  0  0  0  0  0  0  0  0
   -3.0000   -7.7942    0.0000 C   0  0  0  0  0  0  0  0  0  0  0  0
   -3.7500   -9.0933    0.0000 N   0  0  0  0  0  0  0  0  0  0  0  0
   -3.0000  -10.3923    0.0000 C   0  0  0  0  0  0  0  0  0  0  0  0
   -1.5000  -10.3923    0.0000 O   0  0  0  0  0  0  0  0  0  0  0  0
   -3.7500  -11.6913    0.0000 C   0  0  0  0  0  0  0  0  0  0  0  0
   -3.1399  -13.0617    0.0000 C   0  0  0  0  0  0  0  0  0  0  0  0
   -4.2546  -14.0654    0.0000 C   0  0  0  0  0  0  0  0  0  0  0  0
   -5.5537  -13.3154    0.0000 C   0  0  0  0  0  0  0  0  0  0  0  0
   -5.2418  -11.8481    0.0000 O   0  0  0  0  0  0  0  0  0  0  0  0
  1  2  1  0
  2  3  1  0
  3  4  2  0
  4  5  1  0
  5  6  2  0
  6  7  1  0
  7  8  2  0
  8  9  1  0
  9 10  1  0
  9 11  2  0
 11 12  1  0
 12 13  2  0
 13 14  1  0
 14 15  1  0
  7 16  1  0
 16 17  1  0
 16 18  1  0
 18 19  1  0
 19 20  1  0
 20 21  1  0
 21 22  1  0
 22 23  2  0
 22 24  1  0
 24 25  1  0
 25 26  1  0
 26 27  1  0
 27 28  1  0
 13  3  1  0
 11  5  1  0
 28 24  1  0
M  END
$$$$
23093
     RDKit          2D

 28 31  0  0  0  0  0  0  0  0999 V2000
    3.7500   -1.2990    0.0000 C   0  0  0  0  0  0  0  0  0  0  0  0
    3.0000    0.0000    0.0000 O   0  0  0  0  0  0  0  0  0  0  0  0
    1.5000    0.0000    0.0000 C   0  0  0  0  0  0  0  0  0  0  0  0
    0.7500   -1.2990    0.0000 C   0  0  0  0  0  0  0  0  0  0  0  0
   -0.7500   -1.2990    0.0000 C   0  0  0  0  0  0  0  0  0  0  0  0
   -1.5000   -2.5981    0.0000 N   0  0  0  0  0  0  0  0  0  0  0  0
   -3.0000   -2.5981    0.0000 C   0  0  0  0  0  0  0  0  0  0  0  0
   -3.7500   -1.2990    0.0000 N   0  0  0  0  0  0  0  0  0  0  0  0
   -3.0000    0.0000    0.0000 C   0  0  0  0  0  0  0  0  0  0  0  0
   -3.7500    1.2990    0.0000 N   0  0  0  0  0  0  0  0  0  0  0  0
   -1.5000    0.0000    0.0000 C   0  0  0  0  0  0  0  0  0  0  0  0
   -0.7500    1.2990    0.0000 C   0  0  0  0  0  0  0  0  0  0  0  0
    0.7500    1.2990    0.0000 C   0  0  0  0  0  0  0  0  0  0  0  0
    1.5000    2.5981    0.0000 O   0  0  0  0  0  0  0  0  0  0  0  0
    3.0000    2.5981    0.0000 C   0  0  0  0  0  0  0  0  0  0  0  0
   -3.7500   -3.8971    0.0000 N   0  0  0  0  0  0  0  0  0  0  0  0
   -5.2500   -3.8971    0.0000 C   0  0  0  0  0  0  0  0  0  0  0  0
   -6.0000   -5.1962    0.0000 C   0  0  0  0  0  0  0  0  0  0  0  0
   -5.2500   -6.4952    0.0000 N   0  0  0  0  0  0  0  0  0  0  0  0
   -3.7500   -6.4952    0.0000 C   0  0  0  0  0  0  0  0  0  0  0  0
   -3.0000   -5.1962    0.0000 C   0  0  0  0  0  0  0  0  0  0  0  0
   -6.0000   -7.7942    0.0000 C   0  0  0  0  0  0  0  0  0  0  0  0
   -5.2500   -9.0933    0.0000 O   0  0  0  0  0  0  0  0  0  0  0  0
   -7.5000   -7.7942    0.0000 C   0  0  0  0  0  0  0  0  0  0  0  0
   -8.3817   -9.0078    0.0000 C   0  0  0  0  0  0  0  0  0  0  0  0
   -9.8083   -8.5442    0.0000 C   0  0  0  0  0  0  0  0  0  0  0  0
   -9.8083   -7.0442    0.0000 C   0  0  0  0  0  0  0  0  0  0  0  0
   -8.3817   -6.5807    0.0000 O   0  0  0  0  0  0  0  0  0  0  0  0
  1  2  1  0
  2  3  1  0
  3  4  2  0
  4  5  1  0
  5  6  2  0
  6  7  1  0
  7  8  2  0
  8  9  1  0
  9 10  1  0
  9 11  2  0
 11 12  1  0
 12 13  2  0
 13 14  1  0
 14 15  1  0
  7 16  1  0
 16 17  1  0
 17 18  1  0
 18 19  1  0
 19 20  1  0
 20 21  1  0
 19 22  1  0
 22 23  2  0
 22 24  1  0
 24 25  1  0
 25 26  1  0
 26 27  1  0
 27 28  1  0
 13  3  1  0
 11  5  1  0
 21 16  1  0
 28 24  1  0
M  END
$$$$
33373
     RDKit          2D

 33 37  0  0  0  0  0  0  0  0999 V2000
    3.7500   -1.2990    0.0000 C   0  0  0  0  0  0  0  0  0  0  0  0
    3.0000    0.0000    0.0000 O   0  0  0  0  0  0  0  0  0  0  0  0
    1.5000    0.0000    0.0000 C   0  0  0  0  0  0  0  0  0  0  0  0
    0.7500   -1.2990    0.0000 C   0  0  0  0  0  0  0  0  0  0  0  0
   -0.7500   -1.2990    0.0000 C   0  0  0  0  0  0  0  0  0  0  0  0
   -1.5000   -2.5981    0.0000 N   0  0  0  0  0  0  0  0  0  0  0  0
   -3.0000   -2.5981    0.0000 C   0  0  0  0  0  0  0  0  0  0  0  0
   -3.7500   -1.2990    0.0000 N   0  0  0  0  0  0  0  0  0  0  0  0
   -3.0000    0.0000    0.0000 C   0  0  0  0  0  0  0  0  0  0  0  0
   -3.7500    1.2990    0.0000 N   0  0  0  0  0  0  0  0  0  0  0  0
   -1.5000    0.0000    0.0000 C   0  0  0  0  0  0  0  0  0  0  0  0
   -0.7500    1.2990    0.0000 C   0  0  0  0  0  0  0  0  0  0  0  0
    0.7500    1.2990    0.0000 C   0  0  0  0  0  0  0  0  0  0  0  0
    1.5000    2.5981    0.0000 O   0  0  0  0  0  0  0  0  0  0  0  0
    3.0000    2.5981    0.0000 C   0  0  0  0  0  0  0  0  0  0  0  0
   -3.7500   -3.8971    0.0000 N   0  0  0  0  0  0  0  0  0  0  0  0
   -5.2500   -3.8971    0.0000 C   0  0  0  0  0  0  0  0  0  0  0  0
   -6.0000   -5.1962    0.0000 C   0  0  0  0  0  0  0  0  0  0  0  0
   -5.2500   -6.4952    0.0000 N   0  0  0  0  0  0  0  0  0  0  0  0
   -3.7500   -6.4952    0.0000 C   0  0  0  0  0  0  0  0  0  0  0  0
   -3.0000   -5.1962    0.0000 C   0  0  0  0  0  0  0  0  0  0  0  0
   -6.0000   -7.7942    0.0000 C   0  0  0  0  0  0  0  0  0  0  0  0
   -5.2500   -9.0933    0.0000 O   0  0  0  0  0  0  0  0  0  0  0  0
   -7.5000   -7.7942    0.0000 C   0  0  0  0  0  0  0  0  0  0  0  0
   -8.2500   -6.4952    0.0000 C   0  0  0  0  0  0  0  0  0  0  0  0
   -9.7500   -6.4952    0.0000 O   0  0  0  0  0  0  0  0  0  0  0  0
  -10.5000   -7.7942    0.0000 C   0  0  0  0  0  0  0  0  0  0  0  0
  -12.0000   -7.7942    0.0000 C   0  0  0  0  0  0  0  0  0  0  0  0
  -12.7500   -9.0933    0.0000 C   0  0  0  0  0  0  0  0  0  0  0  0
  -12.0000  -10.3923    0.0000 C   0  0  0  0  0  0  0  0  0  0  0  0
  -10.5000  -10.3923    0.0000 C   0  0  0  0  0  0  0  0  0  0  0  0
   -9.7500   -9.0933    0.0000 C   0  0  0  0  0  0  0  0  0  0  0  0
   -8.2500   -9.0933    0.0000 O   0  0  0  0  0  0  0  0  0  0  0  0
  1  2  1  0
  2  3  1  0
  3  4  2  0
  4  5  1  0
  5  6  2  0
  6  7  1  0
  7  8  2  0
  8  9  1  0
  9 10  1  0
  9 11  2  0
 11 12  1  0
 12 13  2  0
 13 14  1  0
 14 15  1  0
  7 16  1  0
 16 17  1  0
 17 18  1  0
 18 19  1  0
 19 20  1  0
 20 21  1  0
 19 22  1  0
 22 23  2  0
 22 24  1  0
 24 25  1  0
 25 26  1  0
 26 27  1  0
 27 28  2  0
 28 29  1  0
 29 30  2  0
 30 31  1  0
 31 32  2  0
 32 33  1  0
 13  3  1  0
 11  5  1  0
 21 16  1  0
 33 24  1  0
 32 27  1  0
M  END
$$$$
674512
     RDKit          2D

 38 41  0  0  0  0  0  0  0  0999 V2000
    3.7500   -1.2990    0.0000 C   0  0  0  0  0  0  0  0  0  0  0  0
    3.0000    0.0000    0.0000 O   0  0  0  0  0  0  0  0  0  0  0  0
    1.5000    0.0000    0.0000 C   0  0  0  0  0  0  0  0  0  0  0  0
    0.7500   -1.2990    0.0000 C   0  0  0  0  0  0  0  0  0  0  0  0
   -0.7500   -1.2990    0.0000 C   0  0  0  0  0  0  0  0  0  0  0  0
   -1.5000   -2.5981    0.0000 N   0  0  0  0  0  0  0  0  0  0  0  0
   -3.0000   -2.5981    0.0000 C   0  0  0  0  0  0  0  0  0  0  0  0
   -3.7500   -1.2990    0.0000 N   0  0  0  0  0  0  0  0  0  0  0  0
   -3.0000    0.0000    0.0000 C   0  0  0  0  0  0  0  0  0  0  0  0
   -3.7500    1.2990    0.0000 N   0  0  0  0  0  0  0  0  0  0  0  0
   -1.5000    0.0000    0.0000 C   0  0  0  0  0  0  0  0  0  0  0  0
   -0.7500    1.2990    0.0000 C   0  0  0  0  0  0  0  0  0  0  0  0
    0.7500    1.2990    0.0000 C   0  0  0  0  0  0  0  0  0  0  0  0
    1.5000    2.5981    0.0000 O   0  0  0  0  0  0  0  0  0  0  0  0
    3.0000    2.5981    0.0000 C   0  0  0  0  0  0  0  0  0  0  0  0
   -3.7500   -3.8971    0.0000 N   0  0  0  0  0  0  0  0  0  0  0  0
   -5.2500   -3.8971    0.0000 C   0  0  0  0  0  0  0  0  0  0  0  0
   -6.0000   -5.1962    0.0000 C   0  0  0  0  0  0  0  0  0  0  0  0
   -5.2500   -6.4952    0.0000 N   0  0  0  0  0  0  0  0  0  0  0  0
   -3.7500   -6.4952    0.0000 C   0  0  0  0  0  0  0  0  0  0  0  0
   -3.0000   -5.1962    0.0000 C   0  0  0  0  0  0  0  0  0  0  0  0
   -6.0000   -7.7942    0.0000 C   0  0  0  0  0  0  0  0  0  0  0  0
   -5.2500   -9.0933    0.0000 O   0  0  0  0  0  0  0  0  0  0  0  0
   -7.5000   -7.7942    0.0000 C   0  0  0  0  0  0  0  0  0  0  0  0
   -8.2500   -6.4952    0.0000 C   0  0  0  0  0  0  0  0  0  0  0  0
   -9.7500   -6.4952    0.0000 O   0  0  0  0  0  0  0  0  0  0  0  0
  -10.5000   -7.7942    0.0000 C   0  0  0  0  0  0  0  0  0  0  0  0
  -12.0000   -7.7942    0.0000 C   0  0  0  0  0  0  0  0  0  0  0  0
  -12.7500   -9.0933    0.0000 C   0  0  0  0  0  0  0  0  0  0  0  0
  -12.0000  -10.3923    0.0000 C   0  0  0  0  0  0  0  0  0  0  0  0
  -10.5000  -10.3923    0.0000 C   0  0  0  0  0  0  0  0  0  0  0  0
   -9.7500   -9.0933    0.0000 C   0  0  0  0  0  0  0  0  0  0  0  0
   -8.2500   -9.0933    0.0000 O   0  0  0  0  0  0  0  0  0  0  0  0
    0.0000    4.1471    0.0000 C   0  0  0  0  0  0  0  0  0  0  0  0
    1.2990    4.8971    0.0000 S   0  0  0  0  0  0  0  0  0  0  0  0
    2.0490    3.5981    0.0000 O   0  0  0  0  0  0  0  0  0  0  0  0
    0.5490    6.1962    0.0000 O   0  0  0  0  0  0  0  0  0  0  0  0
    2.5981    5.6471    0.0000 O   0  0  0  0  0  0  0  0  0  0  0  0
  1  2  1  0
  2  3  1  0
  3  4  2  0
  4  5  1  0
  5  6  2  0
  6  7  1  0
  7  8  2  0
  8  9  1  0
  9 10  1  0
  9 11  2  0
 11 12  1  0
 12 13  2  0
 13 14  1  0
 14 15  1  0
  7 16  1  0
 16 17  1  0
 17 18  1  0
 18 19  1  0
 19 20  1  0
 20 21  1  0
 19 22  1  0
 22 23  2  0
 22 24  1  0
 24 25  1  0
 25 26  1  0
 26 27  1  0
 27 28  2  0
 28 29  1  0
 29 30  2  0
 30 31  1  0
 31 32  2  0
 32 33  1  0
 34 35  1  0
 35 36  2  0
 35 37  2  0
 35 38  1  0
 13  3  1  0
 11  5  1  0
 21 16  1  0
 33 24  1  0
 32 27  1  0
M  END
$$$$
97
     RDKit          2D

 28 31  0  0  0  0  0  0  0  0999 V2000
    3.7500   -1.2990    0.0000 C   0  0  0  0  0  0  0  0  0  0  0  0
    3.0000    0.0000    0.0000 O   0  0  0  0  0  0  0  0  0  0  0  0
    1.5000    0.0000    0.0000 C   0  0  0  0  0  0  0  0  0  0  0  0
    0.7500   -1.2990    0.0000 C   0  0  0  0  0  0  0  0  0  0  0  0
   -0.7500   -1.2990    0.0000 C   0  0  0  0  0  0  0  0  0  0  0  0
   -1.5000   -2.5981    0.0000 N   0  0  0  0  0  0  0  0  0  0  0  0
   -3.0000   -2.5981    0.0000 C   0  0  0  0  0  0  0  0  0  0  0  0
   -3.7500   -1.2990    0.0000 N   0  0  0  0  0  0  0  0  0  0  0  0
   -3.0000    0.0000    0.0000 C   0  0  0  0  0  0  0  0  0  0  0  0
   -3.7500    1.2990    0.0000 N   0  0  0  0  0  0  0  0  0  0  0  0
   -1.5000    0.0000    0.0000 C   0  0  0  0  0  0  0  0  0  0  0  0
   -0.7500    1.2990    0.0000 C   0  0  0  0  0  0  0  0  0  0  0  0
    0.7500    1.2990    0.0000 C   0  0  0  0  0  0  0  0  0  0  0  0
    1.5000    2.5981    0.0000 O   0  0  0  0  0  0  0  0  0  0  0  0
    3.0000    2.5981    0.0000 C   0  0  0  0  0  0  0  0  0  0  0  0
   -3.7500   -3.8971    0.0000 N   0  0  0  0  0  0  0  0  0  0  0  0
   -5.2500   -3.8971    0.0000 C   0  0  0  0  0  0  0  0  0  0  0  0
   -6.0000   -5.1962    0.0000 C   0  0  0  0  0  0  0  0  0  0  0  0
   -5.2500   -6.4952    0.0000 N   0  0  0  0  0  0  0  0  0  0  0  0
   -3.7500   -6.4952    0.0000 C   0  0  0  0  0  0  0  0  0  0  0  0
   -3.0000   -5.1962    0.0000 C   0  0  0  0  0  0  0  0  0  0  0  0
   -6.0000   -7.7942    0.0000 C   0  0  0  0  0  0  0  0  0  0  0  0
   -5.2500   -9.0933    0.0000 O   0  0  0  0  0  0  0  0  0  0  0  0
   -7.5000   -7.7942    0.0000 C   0  0  0  0  0  0  0  0  0  0  0  0
   -8.3817   -9.0078    0.0000 O   0  0  0  0  0  0  0  0  0  0  0  0
   -9.8083   -8.5442    0.0000 C   0  0  0  0  0  0  0  0  0  0  0  0
   -9.8083   -7.0442    0.0000 C   0  0  0  0  0  0  0  0  0  0  0  0
   -8.3817   -6.5807    0.0000 C   0  0  0  0  0  0  0  0  0  0  0  0
  1  2  1  0
  2  3  1  0
  3  4  2  0
  4  5  1  0
  5  6  2  0
  6  7  1  0
  7  8  2  0
  8  9  1  0
  9 10  1  0
  9 11  2  0
 11 12  1  0
 12 13  2  0
 13 14  1  0
 14 15  1  0
  7 16  1  0
 16 17  1  0
 17 18  1  0
 18 19  1  0
 19 20  1  0
 20 21  1  0
 19 22  1  0
 22 23  2  0
 22 24  1  0
 24 25  1  0
 25 26  1  0
 26 27  2  0
 27 28  1  0
 13  3  1  0
 11  5  1  0
 21 16  1  0
 28 24  2  0
M  END
$$$$
1377987
     RDKit          2D

 37 41  0  0  0  0  0  0  0  0999 V2000
    3.0000   -5.1962    0.0000 C   0  0  0  0  0  0  0  0  0  0  0  0
    1.5000   -5.1962    0.0000 O   0  0  0  0  0  0  0  0  0  0  0  0
    0.7500   -3.8971    0.0000 C   0  0  0  0  0  0  0  0  0  0  0  0
    1.5000   -2.5981    0.0000 C   0  0  0  0  0  0  0  0  0  0  0  0
    0.7500   -1.2990    0.0000 C   0  0  0  0  0  0  0  0  0  0  0  0
    1.5000    0.0000    0.0000 N   0  0  0  0  0  0  0  0  0  0  0  0
    0.7500    1.2990    0.0000 C   0  0  0  0  0  0  0  0  0  0  0  0
   -0.7500    1.2990    0.0000 C   0  0  0  0  0  0  0  0  0  0  0  0
   -1.5000    0.0000    0.0000 C   0  0  0  0  0  0  0  0  0  0  0  0
   -3.0000    0.0000    0.0000 O   0  0  0  0  0  0  0  0  0  0  0  0
   -3.7500    1.2990    0.0000 C   0  0  0  0  0  0  0  0  0  0  0  0
   -3.0000    2.5981    0.0000 C   0  0  0  0  0  0  0  0  0  0  0  0
   -3.7500    3.8971    0.0000 C   0  0  0  0  0  0  0  0  0  0  0  0
   -5.2500    3.8971    0.0000 C   0  0  0  0  0  0  0  0  0  0  0  0
   -6.0000    5.1962    0.0000 N   0  0  0  0  0  0  0  0  0  0  0  0
   -5.2500    6.4952    0.0000 C   0  0  0  0  0  0  0  0  0  0  0  0
   -3.7500    6.4952    0.0000 O   0  0  0  0  0  0  0  0  0  0  0  0
   -6.0000    7.7942    0.0000 C   0  0  0  0  0  0  0  0  0  0  0  0
   -6.2605    9.2714    0.0000 C   0  0  0  0  0  0  0  0  0  0  0  0
   -4.8509    8.7584    0.0000 C   0  0  0  0  0  0  0  0  0  0  0  0
   -7.4095    7.2812    0.0000 C   0  0  0  0  0  0  0  0  0  0  0  0
   -7.6700    5.8040    0.0000 O   0  0  0  0  0  0  0  0  0  0  0  0
   -8.5586    8.2454    0.0000 N   0  0  0  0  0  0  0  0  0  0  0  0
   -9.9681    7.7323    0.0000 C   0  0  0  0  0  0  0  0  0  0  0  0
  -11.1172    8.6965    0.0000 C   0  0  0  0  0  0  0  0  0  0  0  0
  -12.5268    8.1835    0.0000 C   0  0  0  0  0  0  0  0  0  0  0  0
  -12.7872    6.7063    0.0000 C   0  0  0  0  0  0  0  0  0  0  0  0
  -14.1968    6.1933    0.0000 F   0  0  0  0  0  0  0  0  0  0  0  0
  -11.6382    5.7421    0.0000 C   0  0  0  0  0  0  0  0  0  0  0  0
  -10.2286    6.2551    0.0000 C   0  0  0  0  0  0  0  0  0  0  0  0
   -6.0000    2.5981    0.0000 C   0  0  0  0  0  0  0  0  0  0  0  0
   -5.2500    1.2990    0.0000 C   0  0  0  0  0  0  0  0  0  0  0  0
   -0.7500   -1.2990    0.0000 C   0  0  0  0  0  0  0  0  0  0  0  0
   -1.5000   -2.5981    0.0000 C   0  0  0  0  0  0  0  0  0  0  0  0
   -0.7500   -3.8971    0.0000 C   0  0  0  0  0  0  0  0  0  0  0  0
   -1.5000   -5.1962    0.0000 O   0  0  0  0  0  0  0  0  0  0  0  0
   -3.0000   -5.1962    0.0000 C   0  0  0  0  0  0  0  0  0  0  0  0
  1  2  1  0
  2  3  1  0
  3  4  2  0
  4  5  1  0
  5  6  2  0
  6  7  1  0
  7  8  2  0
  8  9  1  0
  9 10  1  0
 10 11  1  0
 11 12  2  0
 12 13  1  0
 13 14  2  0
 14 15  1  0
 15 16  1  0
 16 17  2  0
 16 18  1  0
 18 19  1  0
 19 20  1  0
 18 21  1  0
 21 22  2  0
 21 23  1  0
 23 24  1  0
 24 25  2  0
 25 26  1  0
 26 27  2  0
 27 28  1  0
 27 29  1  0
 29 30  2  0
 14 31  1  0
 31 32  2  0
  9 33  2  0
 33 34  1  0
 34 35  2  0
 35 36  1  0
 36 37  1  0
 35  3  1  0
 33  5  1  0
 32 11  1  0
 20 18  1  0
 30 24  1  0
M  END
$$$$
1376138
     RDKit          2D

 46 49  0  0  0  0  0  0  0  0999 V2000
    3.0000   -5.1962    0.0000 C   0  0  0  0  0  0  0  0  0  0  0  0
    1.5000   -5.1962    0.0000 O   0  0  0  0  0  0  0  0  0  0  0  0
    0.7500   -3.8971    0.0000 C   0  0  0  0  0  0  0  0  0  0  0  0
    1.5000   -2.5981    0.0000 C   0  0  0  0  0  0  0  0  0  0  0  0
    0.7500   -1.2990    0.0000 C   0  0  0  0  0  0  0  0  0  0  0  0
    1.5000    0.0000    0.0000 N   0  0  0  0  0  0  0  0  0  0  0  0
    0.7500    1.2990    0.0000 C   0  0  0  0  0  0  0  0  0  0  0  0
   -0.7500    1.2990    0.0000 C   0  0  0  0  0  0  0  0  0  0  0  0
   -1.5000    0.0000    0.0000 C   0  0  0  0  0  0  0  0  0  0  0  0
   -3.0000    0.0000    0.0000 O   0  0  0  0  0  0  0  0  0  0  0  0
   -3.7500    1.2990    0.0000 C   0  0  0  0  0  0  0  0  0  0  0  0
   -3.0000    2.5981    0.0000 C   0  0  0  0  0  0  0  0  0  0  0  0
   -3.7500    3.8971    0.0000 C   0  0  0  0  0  0  0  0  0  0  0  0
   -5.2500    3.8971    0.0000 C   0  0  0  0  0  0  0  0  0  0  0  0
   -6.0000    5.1962    0.0000 N   0  0  0  0  0  0  0  0  0  0  0  0
   -5.2500    6.4952    0.0000 C   0  0  0  0  0  0  0  0  0  0  0  0
   -3.7500    6.4952    0.0000 O   0  0  0  0  0  0  0  0  0  0  0  0
   -6.0000    7.7942    0.0000 C   0  0  0  0  0  0  0  0  0  0  0  0
   -6.2605    9.2714    0.0000 C   0  0  0  0  0  0  0  0  0  0  0  0
   -4.8509    8.7584    0.0000 C   0  0  0  0  0  0  0  0  0  0  0  0
   -7.4095    7.2812    0.0000 C   0  0  0  0  0  0  0  0  0  0  0  0
   -7.6700    5.8040    0.0000 O   0  0  0  0  0  0  0  0  0  0  0  0
   -8.5586    8.2454    0.0000 N   0  0  0  0  0  0  0  0  0  0  0  0
   -9.9681    7.7323    0.0000 C   0  0  0  0  0  0  0  0  0  0  0  0
  -11.1172    8.6965    0.0000 C   0  0  0  0  0  0  0  0  0  0  0  0
  -12.5268    8.1835    0.0000 C   0  0  0  0  0  0  0  0  0  0  0  0
  -12.7872    6.7063    0.0000 C   0  0  0  0  0  0  0  0  0  0  0  0
  -14.1968    6.1933    0.0000 F   0  0  0  0  0  0  0  0  0  0  0  0
  -11.6382    5.7421    0.0000 C   0  0  0  0  0  0  0  0  0  0  0  0
  -10.2286    6.2551    0.0000 C   0  0  0  0  0  0  0  0  0  0  0  0
   -6.0000    2.5981    0.0000 C   0  0  0  0  0  0  0  0  0  0  0  0
   -5.2500    1.2990    0.0000 C   0  0  0  0  0  0  0  0  0  0  0  0
   -0.7500   -1.2990    0.0000 C   0  0  0  0  0  0  0  0  0  0  0  0
   -1.5000   -2.5981    0.0000 C   0  0  0  0  0  0  0  0  0  0  0  0
   -0.7500   -3.8971    0.0000 C   0  0  0  0  0  0  0  0  0  0  0  0
   -1.5000   -5.1962    0.0000 O   0  0  0  0  0  0  0  0  0  0  0  0
   -3.0000   -5.1962    0.0000 C   0  0  0  0  0  0  0  0  0  0  0  0
    1.2990   14.0214    0.0000 O   0  0  0  0  0  0  0  0  0  0  0  0
    1.2990   12.5214    0.0000 C   0  0  0  0  0  0  0  0  0  0  0  0
    0.0000   11.7714    0.0000 C   0  0  0  0  0  0  0  0  0  0  0  0
   -1.2990   12.5214    0.0000 C   0  0  0  0  0  0  0  0  0  0  0  0
   -1.2990   14.0214    0.0000 O   0  0  0  0  0  0  0  0  0  0  0  0
   -2.5981   11.7714    0.0000 O   0  0  0  0  0  0  0  0  0  0  0  0
    2.5981   11.7714    0.0000 C   0  0  0  0  0  0  0  0  0  0  0  0
    2.5981   10.2714    0.0000 O   0  0  0  0  0  0  0  0  0  0  0  0
    3.8971   12.5214    0.0000 O   0  0  0  0  0  0  0  0  0  0  0  0
  1  2  1  0
  2  3  1  0
  3  4  2  0
  4  5  1  0
  5  6  2  0
  6  7  1  0
  7  8  2  0
  8  9  1  0
  9 10  1  0
 10 11  1  0
 11 12  2  0
 12 13  1  0
 13 14  2  0
 14 15  1  0
 15 16  1  0
 16 17  2  0
 16 18  1  0
 18 19  1  0
 19 20  1  0
 18 21  1  0
 21 22  2  0
 21 23  1  0
 23 24  1  0
 24 25  2  0
 25 26  1  0
 26 27  2  0
 27 28  1  0
 27 29  1  0
 29 30  2  0
 14 31  1  0
 31 32  2  0
  9 33  2  0
 33 34  1  0
 34 35  2  0
 35 36  1  0
 36 37  1  0
 39 38  1  6
 39 40  1  0
 40 41  1  0
 41 42  2  0
 41 43  1  0
 39 44  1  0
 44 45  2  0
 44 46  1  0
 35  3  1  0
 33  5  1  0
 32 11  1  0
 20 18  1  0
 30 24  1  0
M  END
$$$$
716009
     RDKit          2D

 30 33  0  0  0  0  0  0  0  0999 V2000
    3.0000   -5.1962    0.0000 C   0  0  0  0  0  0  0  0  0  0  0  0
    1.5000   -5.1962    0.0000 O   0  0  0  0  0  0  0  0  0  0  0  0
    0.7500   -3.8971    0.0000 C   0  0  0  0  0  0  0  0  0  0  0  0
    1.5000   -2.5981    0.0000 C   0  0  0  0  0  0  0  0  0  0  0  0
    0.7500   -1.2990    0.0000 C   0  0  0  0  0  0  0  0  0  0  0  0
    1.5000    0.0000    0.0000 N   0  0  0  0  0  0  0  0  0  0  0  0
    0.7500    1.2990    0.0000 C   0  0  0  0  0  0  0  0  0  0  0  0
   -0.7500    1.2990    0.0000 C   0  0  0  0  0  0  0  0  0  0  0  0
   -1.5000    0.0000    0.0000 C   0  0  0  0  0  0  0  0  0  0  0  0
   -3.0000    0.0000    0.0000 O   0  0  0  0  0  0  0  0  0  0  0  0
   -3.7500    1.2990    0.0000 C   0  0  0  0  0  0  0  0  0  0  0  0
   -3.0000    2.5981    0.0000 C   0  0  0  0  0  0  0  0  0  0  0  0
   -3.7500    3.8971    0.0000 C   0  0  0  0  0  0  0  0  0  0  0  0
   -5.2500    3.8971    0.0000 C   0  0  0  0  0  0  0  0  0  0  0  0
   -6.0000    5.1962    0.0000 N   0  0  0  0  0  0  0  0  0  0  0  0
   -5.2500    6.4952    0.0000 C   0  0  0  0  0  0  0  0  0  0  0  0
   -3.7500    6.4952    0.0000 O   0  0  0  0  0  0  0  0  0  0  0  0
   -6.0000    7.7942    0.0000 N   0  0  0  0  0  0  0  0  0  0  0  0
   -5.2500    9.0933    0.0000 C   0  0  0  0  0  0  0  0  0  0  0  0
   -5.2500   10.5933    0.0000 C   0  0  0  0  0  0  0  0  0  0  0  0
   -3.9510    9.8433    0.0000 C   0  0  0  0  0  0  0  0  0  0  0  0
   -6.0000    2.5981    0.0000 C   0  0  0  0  0  0  0  0  0  0  0  0
   -7.5000    2.5981    0.0000 Cl  0  0  0  0  0  0  0  0  0  0  0  0
   -5.2500    1.2990    0.0000 C   0  0  0  0  0  0  0  0  0  0  0  0
   -0.7500   -1.2990    0.0000 C   0  0  0  0  0  0  0  0  0  0  0  0
   -1.5000   -2.5981    0.0000 C   0  0  0  0  0  0  0  0  0  0  0  0
   -0.7500   -3.8971    0.0000 C   0  0  0  0  0  0  0  0  0  0  0  0
   -1.5000   -5.1962    0.0000 C   0  0  0  0  0  0  0  0  0  0  0  0
   -0.7500   -6.4952    0.0000 O   0  0  0  0  0  0  0  0  0  0  0  0
   -3.0000   -5.1962    0.0000 N   0  0  0  0  0  0  0  0  0  0  0  0
  1  2  1  0
  2  3  1  0
  3  4  2  0
  4  5  1  0
  5  6  2  0
  6  7  1  0
  7  8  2  0
  8  9  1  0
  9 10  1  0
 10 11  1  0
 11 12  2  0
 12 13  1  0
 13 14  2  0
 14 15  1  0
 15 16  1  0
 16 17  2  0
 16 18  1  0
 18 19  1  0
 19 20  1  0
 20 21  1  0
 14 22  1  0
 22 23  1  0
 22 24  2  0
  9 25  2  0
 25 26  1  0
 26 27  2  0
 27 28  1  0
 28 29  2  0
 28 30  1  0
 27  3  1  0
 25  5  1  0
 24 11  1  0
 21 19  1  0
M  END
$$$$
1377974
     RDKit          2D

 35 37  0  0  0  0  0  0  0  0999 V2000
    3.0000   -5.1962    0.0000 C   0  0  0  0  0  0  0  0  0  0  0  0
    1.5000   -5.1962    0.0000 O   0  0  0  0  0  0  0  0  0  0  0  0
    0.7500   -3.8971    0.0000 C   0  0  0  0  0  0  0  0  0  0  0  0
    1.5000   -2.5981    0.0000 C   0  0  0  0  0  0  0  0  0  0  0  0
    0.7500   -1.2990    0.0000 C   0  0  0  0  0  0  0  0  0  0  0  0
    1.5000    0.0000    0.0000 N   0  0  0  0  0  0  0  0  0  0  0  0
    0.7500    1.2990    0.0000 C   0  0  0  0  0  0  0  0  0  0  0  0
   -0.7500    1.2990    0.0000 C   0  0  0  0  0  0  0  0  0  0  0  0
   -1.5000    0.0000    0.0000 C   0  0  0  0  0  0  0  0  0  0  0  0
   -3.0000    0.0000    0.0000 O   0  0  0  0  0  0  0  0  0  0  0  0
   -3.7500    1.2990    0.0000 C   0  0  0  0  0  0  0  0  0  0  0  0
   -3.0000    2.5981    0.0000 C   0  0  0  0  0  0  0  0  0  0  0  0
   -3.7500    3.8971    0.0000 C   0  0  0  0  0  0  0  0  0  0  0  0
   -5.2500    3.8971    0.0000 C   0  0  0  0  0  0  0  0  0  0  0  0
   -6.0000    5.1962    0.0000 N   0  0  0  0  0  0  0  0  0  0  0  0
   -5.2500    6.4952    0.0000 C   0  0  0  0  0  0  0  0  0  0  0  0
   -3.7500    6.4952    0.0000 O   0  0  0  0  0  0  0  0  0  0  0  0
   -6.0000    7.7942    0.0000 N   0  0  0  0  0  0  0  0  0  0  0  0
   -5.2500    9.0933    0.0000 C   0  0  0  0  0  0  0  0  0  0  0  0
   -5.2500   10.5933    0.0000 C   0  0  0  0  0  0  0  0  0  0  0  0
   -3.9510    9.8433    0.0000 C   0  0  0  0  0  0  0  0  0  0  0  0
   -6.0000    2.5981    0.0000 C   0  0  0  0  0  0  0  0  0  0  0  0
   -7.5000    2.5981    0.0000 Cl  0  0  0  0  0  0  0  0  0  0  0  0
   -5.2500    1.2990    0.0000 C   0  0  0  0  0  0  0  0  0  0  0  0
   -0.7500   -1.2990    0.0000 C   0  0  0  0  0  0  0  0  0  0  0  0
   -1.5000   -2.5981    0.0000 C   0  0  0  0  0  0  0  0  0  0  0  0
   -0.7500   -3.8971    0.0000 C   0  0  0  0  0  0  0  0  0  0  0  0
   -1.5000   -5.1962    0.0000 C   0  0  0  0  0  0  0  0  0  0  0  0
   -0.7500   -6.4952    0.0000 O   0  0  0  0  0  0  0  0  0  0  0  0
   -3.0000   -5.1962    0.0000 N   0  0  0  0  0  0  0  0  0  0  0  0
    4.0000    0.0000    0.0000 C   0  0  0  0  0  0  0  0  0  0  0  0
    5.2990    0.7500    0.0000 S   0  0  0  0  0  0  0  0  0  0  0  0
    6.0490   -0.5490    0.0000 O   0  0  0  0  0  0  0  0  0  0  0  0
    4.5490    2.0490    0.0000 O   0  0  0  0  0  0  0  0  0  0  0  0
    6.5981    1.5000    0.0000 O   0  0  0  0  0  0  0  0  0  0  0  0
  1  2  1  0
  2  3  1  0
  3  4  2  0
  4  5  1  0
  5  6  2  0
  6  7  1  0
  7  8  2  0
  8  9  1  0
  9 10  1  0
 10 11  1  0
 11 12  2  0
 12 13  1  0
 13 14  2  0
 14 15  1  0
 15 16  1  0
 16 17  2  0
 16 18  1  0
 18 19  1  0
 19 20  1  0
 20 21  1  0
 14 22  1  0
 22 23  1  0
 22 24  2  0
  9 25  2  0
 25 26  1  0
 26 27  2  0
 27 28  1  0
 28 29  2  0
 28 30  1  0
 31 32  1  0
 32 33  2  0
 32 34  2  0
 32 35  1  0
 27  3  1  0
 25  5  1  0
 24 11  1  0
 21 19  1  0
M  END
$$$$
88232
     RDKit          2D

 31 34  0  0  0  0  0  0  0  0999 V2000
    0.7500   -6.4952    0.0000 C   0  0  0  0  0  0  0  0  0  0  0  0
    1.5000   -5.1962    0.0000 O   0  0  0  0  0  0  0  0  0  0  0  0
    0.7500   -3.8971    0.0000 C   0  0  0  0  0  0  0  0  0  0  0  0
    1.5000   -2.5981    0.0000 C   0  0  0  0  0  0  0  0  0  0  0  0
    0.7500   -1.2990    0.0000 C   0  0  0  0  0  0  0  0  0  0  0  0
    1.5000    0.0000    0.0000 N   0  0  0  0  0  0  0  0  0  0  0  0
    0.7500    1.2990    0.0000 C   0  0  0  0  0  0  0  0  0  0  0  0
   -0.7500    1.2990    0.0000 N   0  0  0  0  0  0  0  0  0  0  0  0
   -1.5000    0.0000    0.0000 C   0  0  0  0  0  0  0  0  0  0  0  0
   -3.0000    0.0000    0.0000 N   0  0  0  0  0  0  0  0  0  0  0  0
   -3.7500    1.2990    0.0000 C   0  0  0  0  0  0  0  0  0  0  0  0
   -3.0000    2.5981    0.0000 C   0  0  0  0  0  0  0  0  0  0  0  0
   -3.7500    3.8971    0.0000 C   0  0  0  0  0  0  0  0  0  0  0  0
   -5.2500    3.8971    0.0000 C   0  0  0  0  0  0  0  0  0  0  0  0
   -6.0000    5.1962    0.0000 F   0  0  0  0  0  0  0  0  0  0  0  0
   -6.0000    2.5981    0.0000 C   0  0  0  0  0  0  0  0  0  0  0  0
   -7.5000    2.5981    0.0000 Cl  0  0  0  0  0  0  0  0  0  0  0  0
   -5.2500    1.2990    0.0000 C   0  0  0  0  0  0  0  0  0  0  0  0
   -0.7500   -1.2990    0.0000 C   0  0  0  0  0  0  0  0  0  0  0  0
   -1.5000   -2.5981    0.0000 C   0  0  0  0  0  0  0  0  0  0  0  0
   -0.7500   -3.8971    0.0000 C   0  0  0  0  0  0  0  0  0  0  0  0
   -1.5000   -5.1962    0.0000 O   0  0  0  0  0  0  0  0  0  0  0  0
   -3.0000   -5.1962    0.0000 C   0  0  0  0  0  0  0  0  0  0  0  0
   -3.7500   -6.4952    0.0000 C   0  0  0  0  0  0  0  0  0  0  0  0
   -5.2500   -6.4952    0.0000 C   0  0  0  0  0  0  0  0  0  0  0  0
   -6.0000   -7.7942    0.0000 N   0  0  0  0  0  0  0  0  0  0  0  0
   -7.5000   -7.7942    0.0000 C   0  0  0  0  0  0  0  0  0  0  0  0
   -8.2500   -9.0933    0.0000 C   0  0  0  0  0  0  0  0  0  0  0  0
   -7.5000  -10.3923    0.0000 O   0  0  0  0  0  0  0  0  0  0  0  0
   -6.0000  -10.3923    0.0000 C   0  0  0  0  0  0  0  0  0  0  0  0
   -5.2500   -9.0933    0.0000 C   0  0  0  0  0  0  0  0  0  0  0  0
  1  2  1  0
  2  3  1  0
  3  4  2  0
  4  5  1  0
  5  6  2  0
  6  7  1  0
  7  8  2  0
  8  9  1  0
  9 10  1  0
 10 11  1  0
 11 12  2  0
 12 13  1  0
 13 14  2  0
 14 15  1  0
 14 16  1  0
 16 17  1  0
 16 18  2  0
  9 19  2  0
 19 20  1  0
 20 21  2  0
 21 22  1  0
 22 23  1  0
 23 24  1  0
 24 25  1  0
 25 26  1  0
 26 27  1  0
 27 28  1  0
 28 29  1  0
 29 30  1  0
 30 31  1  0
 21  3  1  0
 19  5  1  0
 18 11  1  0
 31 26  1  0
M  END
$$$$
674712
     RDKit          2D

 27 29  0  0  0  0  0  0  0  0999 V2000
    3.7500   -1.2990    0.0000 C   0  0  0  0  0  0  0  0  0  0  0  0
    3.0000    0.0000    0.0000 O   0  0  0  0  0  0  0  0  0  0  0  0
    1.5000    0.0000    0.0000 C   0  0  0  0  0  0  0  0  0  0  0  0
    0.7500   -1.2990    0.0000 C   0  0  0  0  0  0  0  0  0  0  0  0
   -0.7500   -1.2990    0.0000 C   0  0  0  0  0  0  0  0  0  0  0  0
   -1.5000    0.0000    0.0000 C   0  0  0  0  0  0  0  0  0  0  0  0
   -0.7500    1.2990    0.0000 C   0  0  0  0  0  0  0  0  0  0  0  0
    0.7500    1.2990    0.0000 C   0  0  0  0  0  0  0  0  0  0  0  0
   -3.0000    0.0000    0.0000 C   0  0  0  0  0  0  0  0  0  0  0  0
   -3.7500    1.2990    0.0000 C   0  0  0  0  0  0  0  0  0  0  0  0
   -5.2500    1.2990    0.0000 C   0  0  0  0  0  0  0  0  0  0  0  0
   -6.0000    2.5981    0.0000 C   0  0  0  0  0  0  0  0  0  0  0  0
   -7.5000    2.5981    0.0000 C   0  0  0  0  0  0  0  0  0  0  0  0
   -8.2500    1.2990    0.0000 C   0  0  0  0  0  0  0  0  0  0  0  0
   -9.7500    1.2990    0.0000 O   0  0  0  0  0  0  0  0  0  0  0  0
  -10.5000    2.5981    0.0000 C   0  0  0  0  0  0  0  0  0  0  0  0
   -7.5000    0.0000    0.0000 C   0  0  0  0  0  0  0  0  0  0  0  0
   -6.0000    0.0000    0.0000 C   0  0  0  0  0  0  0  0  0  0  0  0
   -3.0000    2.5981    0.0000 C   0  0  0  0  0  0  0  0  0  0  0  0
   -1.5000    2.5981    0.0000 C   0  0  0  0  0  0  0  0  0  0  0  0
   -0.7500    3.8971    0.0000 C   0  0  0  0  0  0  0  0  0  0  0  0
   -1.5000    5.1962    0.0000 C   0  0  0  0  0  0  0  0  0  0  0  0
   -0.7500    6.4952    0.0000 O   0  0  0  0  0  0  0  0  0  0  0  0
    0.7500    6.4952    0.0000 C   0  0  0  0  0  0  0  0  0  0  0  0
   -3.0000    5.1962    0.0000 C   0  0  0  0  0  0  0  0  0  0  0  0
   -3.7500    3.8971    0.0000 C   0  0  0  0  0  0  0  0  0  0  0  0
   -3.7500   -1.2990    0.0000 Cl  0  0  0  0  0  0  0  0  0  0  0  0
  1  2  1  0
  2  3  1  0
  3  4  2  0
  4  5  1  0
  5  6  2  0
  6  7  1  0
  7  8  2  0
  6  9  1  0
  9 10  2  0
 10 11  1  0
 11 12  2  0
 12 13  1  0
 13 14  2  0
 14 15  1  0
 15 16  1  0
 14 17  1  0
 17 18  2  0
 10 19  1  0
 19 20  2  0
 20 21  1  0
 21 22  2  0
 22 23  1  0
 23 24  1  0
 22 25  1  0
 25 26  2  0
  9 27  1  0
  8  3  1  0
 18 11  1  0
 26 19  1  0
M  END
$$$$
27278
     RDKit          2D

 20 21  0  0  0  0  0  0  0  0999 V2000
    3.7500   -1.2990    0.0000 C   0  0  0  0  0  0  0  0  0  0  0  0
    3.0000    0.0000    0.0000 O   0  0  0  0  0  0  0  0  0  0  0  0
    1.5000    0.0000    0.0000 C   0  0  0  0  0  0  0  0  0  0  0  0
    0.7500   -1.2990    0.0000 C   0  0  0  0  0  0  0  0  0  0  0  0
   -0.7500   -1.2990    0.0000 C   0  0  0  0  0  0  0  0  0  0  0  0
   -1.5000    0.0000    0.0000 C   0  0  0  0  0  0  0  0  0  0  0  0
   -0.7500    1.2990    0.0000 C   0  0  0  0  0  0  0  0  0  0  0  0
    0.7500    1.2990    0.0000 C   0  0  0  0  0  0  0  0  0  0  0  0
   -3.0000    0.0000    0.0000 C   0  0  0  0  0  0  0  0  0  0  0  0
   -3.7500    1.2990    0.0000 C   0  0  0  0  0  0  0  0  0  0  0  0
   -5.2500    1.2990    0.0000 N   0  0  0  0  0  0  0  0  0  0  0  0
   -6.0000    2.5981    0.0000 C   0  0  0  0  0  0  0  0  0  0  0  0
   -6.0000    0.0000    0.0000 C   0  0  0  0  0  0  0  0  0  0  0  0
   -3.7500   -1.2990    0.0000 C   0  0  0  0  0  0  0  0  0  0  0  0
   -2.3405   -1.8121    0.0000 O   0  0  0  0  0  0  0  0  0  0  0  0
   -4.8991   -0.3349    0.0000 C   0  0  0  0  0  0  0  0  0  0  0  0
   -6.3086   -0.8479    0.0000 C   0  0  0  0  0  0  0  0  0  0  0  0
   -6.5691   -2.3251    0.0000 C   0  0  0  0  0  0  0  0  0  0  0  0
   -5.4200   -3.2893    0.0000 C   0  0  0  0  0  0  0  0  0  0  0  0
   -4.0105   -2.7762    0.0000 C   0  0  0  0  0  0  0  0  0  0  0  0
  1  2  1  0
  2  3  1  0
  3  4  2  0
  4  5  1  0
  5  6  2  0
  6  7  1  0
  7  8  2  0
  6  9  1  0
  9 10  1  0
 10 11  1  0
 11 12  1  0
 11 13  1  0
  9 14  1  0
 14 15  1  0
 14 16  1  0
 16 17  1  0
 17 18  1  0
 18 19  1  0
 19 20  1  0
  8  3  1  0
 20 14  1  0
M  END
$$$$
33809
     RDKit          2D

 19 21  0  0  0  0  0  0  0  0999 V2000
   -1.2990  -10.3573    0.0000 C   0  0  0  0  0  0  0  0  0  0  0  0
    0.0000   -9.6073    0.0000 O   0  0  0  0  0  0  0  0  0  0  0  0
    0.0000   -8.1073    0.0000 C   0  0  0  0  0  0  0  0  0  0  0  0
   -1.2990   -7.3573    0.0000 C   0  0  0  0  0  0  0  0  0  0  0  0
   -1.2990   -5.8573    0.0000 C   0  0  0  0  0  0  0  0  0  0  0  0
   -0.0000   -5.1073    0.0000 C   0  0  0  0  0  0  0  0  0  0  0  0
    1.2990   -5.8573    0.0000 C   0  0  0  0  0  0  0  0  0  0  0  0
    1.2990   -7.3573    0.0000 C   0  0  0  0  0  0  0  0  0  0  0  0
   -0.0000   -3.6073    0.0000 C   0  0  0  0  0  0  0  0  0  0  0  0
    1.2135   -2.7256    0.0000 C   0  0  0  0  0  0  0  0  0  0  0  0
    2.6401   -3.1891    0.0000 O   0  0  0  0  0  0  0  0  0  0  0  0
    0.7500   -1.2990    0.0000 C   0  0  0  0  0  0  0  0  0  0  0  0
    1.5000    0.0000    0.0000 C   0  0  0  0  0  0  0  0  0  0  0  0
    0.7500    1.2990    0.0000 C   0  0  0  0  0  0  0  0  0  0  0  0
   -0.7500    1.2990    0.0000 C   0  0  0  0  0  0  0  0  0  0  0  0
   -1.5000    0.0000    0.0000 C   0  0  0  0  0  0  0  0  0  0  0  0
   -0.7500   -1.2990    0.0000 C   0  0  0  0  0  0  0  0  0  0  0  0
   -1.2135   -2.7256    0.0000 C   0  0  0  0  0  0  0  0  0  0  0  0
   -2.6401   -3.1891    0.0000 O   0  0  0  0  0  0  0  0  0  0  0  0
  1  2  1  0
  2  3  1  0
  3  4  2  0
  4  5  1  0
  5  6  2  0
  6  7  1  0
  7  8  2  0
  6  9  1  0
  9 10  1  0
 10 11  2  0
 10 12  1  0
 12 13  2  0
 13 14  1  0
 14 15  2  0
 15 16  1  0
 16 17  2  0
 17 18  1  0
 18 19  2  0
  8  3  1  0
 18  9  1  0
 17 12  1  0
M  END
$$$$
397524
     RDKit          2D

 34 38  0  0  0  0  0  0  0  0999 V2000
   -8.0346   -3.5760    0.0000 C   0  0  0  0  0  0  0  0  0  0  0  0
   -6.9199   -4.5797    0.0000 O   0  0  0  0  0  0  0  0  0  0  0  0
   -5.4933   -4.1162    0.0000 C   0  0  0  0  0  0  0  0  0  0  0  0
   -5.1814   -2.6490    0.0000 C   0  0  0  0  0  0  0  0  0  0  0  0
   -3.7548   -2.1855    0.0000 C   0  0  0  0  0  0  0  0  0  0  0  0
   -2.6401   -3.1891    0.0000 C   0  0  0  0  0  0  0  0  0  0  0  0
   -2.9520   -4.6564    0.0000 C   0  0  0  0  0  0  0  0  0  0  0  0
   -4.3786   -5.1199    0.0000 C   0  0  0  0  0  0  0  0  0  0  0  0
   -1.2135   -2.7256    0.0000 N   0  0  0  0  0  0  0  0  0  0  0  0
   -0.0000   -3.6073    0.0000 N   0  0  0  0  0  0  0  0  0  0  0  0
    1.2135   -2.7256    0.0000 C   0  0  0  0  0  0  0  0  0  0  0  0
    2.6401   -3.1891    0.0000 C   0  0  0  0  0  0  0  0  0  0  0  0
    3.7548   -2.1855    0.0000 O   0  0  0  0  0  0  0  0  0  0  0  0
    2.9520   -4.6564    0.0000 N   0  0  0  0  0  0  0  0  0  0  0  0
    0.7500   -1.2990    0.0000 C   0  0  0  0  0  0  0  0  0  0  0  0
    1.5000    0.0000    0.0000 C   0  0  0  0  0  0  0  0  0  0  0  0
    0.7500    1.2990    0.0000 C   0  0  0  0  0  0  0  0  0  0  0  0
   -0.7500    1.2990    0.0000 N   0  0  0  0  0  0  0  0  0  0  0  0
   -1.5000    0.0000    0.0000 C   0  0  0  0  0  0  0  0  0  0  0  0
   -3.0000    0.0000    0.0000 O   0  0  0  0  0  0  0  0  0  0  0  0
   -0.7500   -1.2990    0.0000 C   0  0  0  0  0  0  0  0  0  0  0  0
   -1.5000    2.5981    0.0000 C   0  0  0  0  0  0  0  0  0  0  0  0
   -0.7500    3.8971    0.0000 C   0  0  0  0  0  0  0  0  0  0  0  0
   -1.5000    5.1962    0.0000 C   0  0  0  0  0  0  0  0  0  0  0  0
   -3.0000    5.1962    0.0000 C   0  0  0  0  0  0  0  0  0  0  0  0
   -3.7500    3.8971    0.0000 C   0  0  0  0  0  0  0  0  0  0  0  0
   -3.0000    2.5981    0.0000 C   0  0  0  0  0  0  0  0  0  0  0  0
   -3.7500    6.4952    0.0000 N   0  0  0  0  0  0  0  0  0  0  0  0
   -3.0000    7.7942    0.0000 C   0  0  0  0  0  0  0  0  0  0  0  0
   -3.7500    9.0933    0.0000 C   0  0  0  0  0  0  0  0  0  0  0  0
   -5.2500    9.0933    0.0000 C   0  0  0  0  0  0  0  0  0  0  0  0
   -6.0000    7.7942    0.0000 C   0  0  0  0  0  0  0  0  0  0  0  0
   -5.2500    6.4952    0.0000 C   0  0  0  0  0  0  0  0  0  0  0  0
   -6.0000    5.1962    0.0000 O   0  0  0  0  0  0  0  0  0  0  0  0
  1  2  1  0
  2  3  1  0
  3  4  2  0
  4  5  1  0
  5  6  2  0
  6  7  1  0
  7  8  2  0
  6  9  1  0
  9 10  1  0
 10 11  2  0
 11 12  1  0
 12 13  2  0
 12 14  1  0
 11 15  1  0
 15 16  1  0
 16 17  1  0
 17 18  1  0
 18 19  1  0
 19 20  2  0
 19 21  1  0
 18 22  1  0
 22 23  2  0
 23 24  1  0
 24 25  2  0
 25 26  1  0
 26 27  2  0
 25 28  1  0
 28 29  1  0
 29 30  1  0
 30 31  1  0
 31 32  1  0
 32 33  1  0
 33 34  2  0
  8  3  1  0
 21  9  1  0
 21 15  2  0
 27 22  1  0
 33 28  1  0
M  END
$$$$
1278
     RDKit          2D

 29 31  0  0  0  0  0  0  0  0999 V2000
    5.8189   -9.1584    0.0000 C   0  0  0  0  0  0  0  0  0  0  0  0
    6.0424   -7.6751    0.0000 O   0  0  0  0  0  0  0  0  0  0  0  0
    4.8697   -6.7399    0.0000 C   0  0  0  0  0  0  0  0  0  0  0  0
    3.4734   -7.2879    0.0000 C   0  0  0  0  0  0  0  0  0  0  0  0
    2.3006   -6.3527    0.0000 C   0  0  0  0  0  0  0  0  0  0  0  0
    2.5242   -4.8694    0.0000 C   0  0  0  0  0  0  0  0  0  0  0  0
    3.9205   -4.3214    0.0000 C   0  0  0  0  0  0  0  0  0  0  0  0
    5.0933   -5.2566    0.0000 C   0  0  0  0  0  0  0  0  0  0  0  0
    1.3515   -3.9342    0.0000 C   0  0  0  0  0  0  0  0  0  0  0  0
    1.6852   -2.4718    0.0000 S   0  0  0  0  0  0  0  0  0  0  0  0
    0.7500   -1.2990    0.0000 C   0  0  0  0  0  0  0  0  0  0  0  0
    1.5000    0.0000    0.0000 C   0  0  0  0  0  0  0  0  0  0  0  0
    0.7500    1.2990    0.0000 C   0  0  0  0  0  0  0  0  0  0  0  0
   -0.7500    1.2990    0.0000 C   0  0  0  0  0  0  0  0  0  0  0  0
   -1.5000    0.0000    0.0000 C   0  0  0  0  0  0  0  0  0  0  0  0
   -0.7500   -1.2990    0.0000 C   0  0  0  0  0  0  0  0  0  0  0  0
   -1.6852   -2.4718    0.0000 N   0  0  0  0  0  0  0  0  0  0  0  0
   -3.1476   -2.1380    0.0000 C   0  0  0  0  0  0  0  0  0  0  0  0
   -3.5898   -0.7046    0.0000 C   0  0  0  0  0  0  0  0  0  0  0  0
   -5.0522   -0.3709    0.0000 N   0  0  0  0  0  0  0  0  0  0  0  0
   -5.4943    1.0625    0.0000 C   0  0  0  0  0  0  0  0  0  0  0  0
   -6.0724   -1.4704    0.0000 C   0  0  0  0  0  0  0  0  0  0  0  0
   -1.3515   -3.9342    0.0000 C   0  0  0  0  0  0  0  0  0  0  0  0
   -2.5242   -4.8694    0.0000 O   0  0  0  0  0  0  0  0  0  0  0  0
    0.0000   -4.5850    0.0000 C   0  0  0  0  0  0  0  0  0  0  0  0
    0.0000   -6.0850    0.0000 O   0  0  0  0  0  0  0  0  0  0  0  0
   -1.2990   -6.8350    0.0000 C   0  0  0  0  0  0  0  0  0  0  0  0
   -2.5981   -6.0850    0.0000 O   0  0  0  0  0  0  0  0  0  0  0  0
   -1.2990   -8.3350    0.0000 C   0  0  0  0  0  0  0  0  0  0  0  0
  1  2  1  0
  2  3  1  0
  3  4  2  0
  4  5  1  0
  5  6  2  0
  6  7  1  0
  7  8  2  0
  9  6  1  1
  9 10  1  0
 10 11  1  0
 11 12  2  0
 12 13  1  0
 13 14  2  0
 14 15  1  0
 15 16  2  0
 16 17  1  0
 17 18  1  0
 18 19  1  0
 19 20  1  0
 20 21  1  0
 20 22  1  0
 17 23  1  0
 23 24  2  0
 23 25  1  0
 25 26  1  1
 26 27  1  0
 27 28  2  0
 27 29  1  0
  8  3  1  0
 25  9  1  0
 16 11  1  0
M  END
$$$$
674756
     RDKit          2D

 38 39  0  0  0  0  0  0  0  0999 V2000
    5.8189   -9.1584    0.0000 C   0  0  0  0  0  0  0  0  0  0  0  0
    6.0424   -7.6751    0.0000 O   0  0  0  0  0  0  0  0  0  0  0  0
    4.8697   -6.7399    0.0000 C   0  0  0  0  0  0  0  0  0  0  0  0
    3.4734   -7.2879    0.0000 C   0  0  0  0  0  0  0  0  0  0  0  0
    2.3006   -6.3527    0.0000 C   0  0  0  0  0  0  0  0  0  0  0  0
    2.5242   -4.8694    0.0000 C   0  0  0  0  0  0  0  0  0  0  0  0
    3.9205   -4.3214    0.0000 C   0  0  0  0  0  0  0  0  0  0  0  0
    5.0933   -5.2566    0.0000 C   0  0  0  0  0  0  0  0  0  0  0  0
    1.3515   -3.9342    0.0000 C   0  0  0  0  0  0  0  0  0  0  0  0
    1.6852   -2.4718    0.0000 S   0  0  0  0  0  0  0  0  0  0  0  0
    0.7500   -1.2990    0.0000 C   0  0  0  0  0  0  0  0  0  0  0  0
    1.5000    0.0000    0.0000 C   0  0  0  0  0  0  0  0  0  0  0  0
    0.7500    1.2990    0.0000 C   0  0  0  0  0  0  0  0  0  0  0  0
   -0.7500    1.2990    0.0000 C   0  0  0  0  0  0  0  0  0  0  0  0
   -1.5000    0.0000    0.0000 C   0  0  0  0  0  0  0  0  0  0  0  0
   -0.7500   -1.2990    0.0000 C   0  0  0  0  0  0  0  0  0  0  0  0
   -1.6852   -2.4718    0.0000 N   0  0  0  0  0  0  0  0  0  0  0  0
   -3.1476   -2.1380    0.0000 C   0  0  0  0  0  0  0  0  0  0  0  0
   -3.5898   -0.7046    0.0000 C   0  0  0  0  0  0  0  0  0  0  0  0
   -5.0522   -0.3709    0.0000 N   0  0  0  0  0  0  0  0  0  0  0  0
   -5.4943    1.0625    0.0000 C   0  0  0  0  0  0  0  0  0  0  0  0
   -6.0724   -1.4704    0.0000 C   0  0  0  0  0  0  0  0  0  0  0  0
   -1.3515   -3.9342    0.0000 C   0  0  0  0  0  0  0  0  0  0  0  0
   -2.5242   -4.8694    0.0000 O   0  0  0  0  0  0  0  0  0  0  0  0
    0.0000   -4.5850    0.0000 C   0  0  0  0  0  0  0  0  0  0  0  0
    0.0000   -6.0850    0.0000 O   0  0  0  0  0  0  0  0  0  0  0  0
   -1.2990   -6.8350    0.0000 C   0  0  0  0  0  0  0  0  0  0  0  0
   -2.5981   -6.0850    0.0000 O   0  0  0  0  0  0  0  0  0  0  0  0
   -1.2990   -8.3350    0.0000 C   0  0  0  0  0  0  0  0  0  0  0  0
    1.2990    6.0490    0.0000 O   0  0  0  0  0  0  0  0  0  0  0  0
    1.2990    4.5490    0.0000 C   0  0  0  0  0  0  0  0  0  0  0  0
    0.0000    3.7990    0.0000 C   0  0  0  0  0  0  0  0  0  0  0  0
   -1.2990    4.5490    0.0000 C   0  0  0  0  0  0  0  0  0  0  0  0
   -1.2990    6.0490    0.0000 O   0  0  0  0  0  0  0  0  0  0  0  0
   -2.5981    3.7990    0.0000 O   0  0  0  0  0  0  0  0  0  0  0  0
    2.5981    3.7990    0.0000 C   0  0  0  0  0  0  0  0  0  0  0  0
    2.5981    2.2990    0.0000 O   0  0  0  0  0  0  0  0  0  0  0  0
    3.8971    4.5490    0.0000 O   0  0  0  0  0  0  0  0  0  0  0  0
  1  2  1  0
  2  3  1  0
  3  4  2  0
  4  5  1  0
  5  6  2  0
  6  7  1  0
  7  8  2  0
  9  6  1  1
  9 10  1  0
 10 11  1  0
 11 12  2  0
 12 13  1  0
 13 14  2  0
 14 15  1  0
 15 16  2  0
 16 17  1  0
 17 18  1  0
 18 19  1  0
 19 20  1  0
 20 21  1  0
 20 22  1  0
 17 23  1  0
 23 24  2  0
 23 25  1  0
 25 26  1  1
 26 27  1  0
 27 28  2  0
 27 29  1  0
 30 31  1  0
 31 32  1  0
 32 33  1  0
 33 34  2  0
 33 35  1  0
 31 36  1  0
 36 37  2  0
 36 38  1  0
  8  3  1  0
 25  9  1  0
 16 11  1  0
M  END
$$$$
1219
     RDKit          2D

 33 34  0  0  0  0  0  0  0  0999 V2000
    3.7500   -1.2990    0.0000 C   0  0  0  0  0  0  0  0  0  0  0  0
    3.0000    0.0000    0.0000 O   0  0  0  0  0  0  0  0  0  0  0  0
    1.5000    0.0000    0.0000 C   0  0  0  0  0  0  0  0  0  0  0  0
    0.7500   -1.2990    0.0000 C   0  0  0  0  0  0  0  0  0  0  0  0
   -0.7500   -1.2990    0.0000 C   0  0  0  0  0  0  0  0  0  0  0  0
   -1.5000    0.0000    0.0000 C   0  0  0  0  0  0  0  0  0  0  0  0
   -3.0000    0.0000    0.0000 C   0  0  0  0  0  0  0  0  0  0  0  0
   -3.7500    1.2990    0.0000 C   0  0  0  0  0  0  0  0  0  0  0  0
   -5.2500    1.2990    0.0000 N   0  0  0  0  0  0  0  0  0  0  0  0
   -6.0000    2.5981    0.0000 C   0  0  0  0  0  0  0  0  0  0  0  0
   -6.0000    0.0000    0.0000 C   0  0  0  0  0  0  0  0  0  0  0  0
   -7.5000    0.0000    0.0000 C   0  0  0  0  0  0  0  0  0  0  0  0
   -8.2500   -1.2990    0.0000 C   0  0  0  0  0  0  0  0  0  0  0  0
   -9.7500   -1.2990    0.0000 C   0  0  0  0  0  0  0  0  0  0  0  0
   -9.7500    0.2010    0.0000 C   0  0  0  0  0  0  0  0  0  0  0  0
   -9.7500    1.7010    0.0000 N   0  0  0  0  0  0  0  0  0  0  0  0
  -11.2500   -1.2990    0.0000 C   0  0  0  0  0  0  0  0  0  0  0  0
  -12.0000    0.0000    0.0000 C   0  0  0  0  0  0  0  0  0  0  0  0
  -12.0000   -2.5981    0.0000 C   0  0  0  0  0  0  0  0  0  0  0  0
   -9.7500   -2.7990    0.0000 C   0  0  0  0  0  0  0  0  0  0  0  0
  -11.0490   -3.5490    0.0000 C   0  0  0  0  0  0  0  0  0  0  0  0
  -11.0490   -5.0490    0.0000 C   0  0  0  0  0  0  0  0  0  0  0  0
   -9.7500   -5.7990    0.0000 C   0  0  0  0  0  0  0  0  0  0  0  0
   -9.7500   -7.2990    0.0000 O   0  0  0  0  0  0  0  0  0  0  0  0
  -11.0490   -8.0490    0.0000 C   0  0  0  0  0  0  0  0  0  0  0  0
   -8.4510   -5.0490    0.0000 C   0  0  0  0  0  0  0  0  0  0  0  0
   -7.1519   -5.7990    0.0000 O   0  0  0  0  0  0  0  0  0  0  0  0
   -5.8529   -5.0490    0.0000 C   0  0  0  0  0  0  0  0  0  0  0  0
   -8.4510   -3.5490    0.0000 C   0  0  0  0  0  0  0  0  0  0  0  0
   -0.7500    1.2990    0.0000 C   0  0  0  0  0  0  0  0  0  0  0  0
    0.7500    1.2990    0.0000 C   0  0  0  0  0  0  0  0  0  0  0  0
    1.5000    2.5981    0.0000 O   0  0  0  0  0  0  0  0  0  0  0  0
    0.7500    3.8971    0.0000 C   0  0  0  0  0  0  0  0  0  0  0  0
  1  2  1  0
  2  3  1  0
  3  4  2  0
  4  5  1  0
  5  6  2  0
  6  7  1  0
  7  8  1  0
  8  9  1  0
  9 10  1  0
  9 11  1  0
 11 12  1  0
 12 13  1  0
 13 14  1  0
 14 15  1  0
 15 16  3  0
 14 17  1  0
 17 18  1  0
 17 19  1  0
 14 20  1  0
 20 21  2  0
 21 22  1  0
 22 23  2  0
 23 24  1  0
 24 25  1  0
 23 26  1  0
 26 27  1  0
 27 28  1  0
 26 29  2  0
  6 30  1  0
 30 31  2  0
 31 32  1  0
 32 33  1  0
 31  3  1  0
 29 20  1  0
M  END
$$$$
65605
     RDKit          2D

 34 38  0  0  0  0  0  0  0  0999 V2000
  -12.9904   -9.6073    0.0000 C   0  0  0  0  0  0  0  0  0  0  0  0
  -11.6913  -10.3573    0.0000 O   0  0  0  0  0  0  0  0  0  0  0  0
  -10.3923   -9.6073    0.0000 C   0  0  0  0  0  0  0  0  0  0  0  0
  -10.3923   -8.1073    0.0000 C   0  0  0  0  0  0  0  0  0  0  0  0
   -9.0933   -7.3573    0.0000 C   0  0  0  0  0  0  0  0  0  0  0  0
   -7.7942   -8.1073    0.0000 C   0  0  0  0  0  0  0  0  0  0  0  0
   -6.4952   -7.3573    0.0000 C   0  0  0  0  0  0  0  0  0  0  0  0
   -5.1962   -8.1073    0.0000 C   0  0  0  0  0  0  0  0  0  0  0  0
   -3.8971   -7.3573    0.0000 N   0  0  0  0  0  0  0  0  0  0  0  0
   -2.5981   -8.1073    0.0000 C   0  0  0  0  0  0  0  0  0  0  0  0
   -1.2990   -7.3573    0.0000 C   0  0  0  0  0  0  0  0  0  0  0  0
   -1.2990   -5.8573    0.0000 C   0  0  0  0  0  0  0  0  0  0  0  0
   -2.5981   -5.1073    0.0000 C   0  0  0  0  0  0  0  0  0  0  0  0
   -3.8971   -5.8573    0.0000 C   0  0  0  0  0  0  0  0  0  0  0  0
   -0.0000   -5.1073    0.0000 N   0  0  0  0  0  0  0  0  0  0  0  0
   -0.0000   -3.6073    0.0000 C   0  0  0  0  0  0  0  0  0  0  0  0
    1.2135   -2.7256    0.0000 N   0  0  0  0  0  0  0  0  0  0  0  0
    0.7500   -1.2990    0.0000 C   0  0  0  0  0  0  0  0  0  0  0  0
    1.5000    0.0000    0.0000 C   0  0  0  0  0  0  0  0  0  0  0  0
    0.7500    1.2990    0.0000 C   0  0  0  0  0  0  0  0  0  0  0  0
   -0.7500    1.2990    0.0000 C   0  0  0  0  0  0  0  0  0  0  0  0
   -1.5000    0.0000    0.0000 C   0  0  0  0  0  0  0  0  0  0  0  0
   -0.7500   -1.2990    0.0000 C   0  0  0  0  0  0  0  0  0  0  0  0
   -1.2135   -2.7256    0.0000 N   0  0  0  0  0  0  0  0  0  0  0  0
   -2.6401   -3.1891    0.0000 C   0  0  0  0  0  0  0  0  0  0  0  0
   -3.7548   -2.1855    0.0000 C   0  0  0  0  0  0  0  0  0  0  0  0
   -3.4430   -0.7182    0.0000 C   0  0  0  0  0  0  0  0  0  0  0  0
   -4.5577    0.2855    0.0000 C   0  0  0  0  0  0  0  0  0  0  0  0
   -5.9843   -0.1781    0.0000 C   0  0  0  0  0  0  0  0  0  0  0  0
   -7.0990    0.8256    0.0000 F   0  0  0  0  0  0  0  0  0  0  0  0
   -6.2961   -1.6453    0.0000 C   0  0  0  0  0  0  0  0  0  0  0  0
   -5.1814   -2.6490    0.0000 C   0  0  0  0  0  0  0  0  0  0  0  0
   -7.7942   -9.6073    0.0000 C   0  0  0  0  0  0  0  0  0  0  0  0
   -9.0933  -10.3573    0.0000 C   0  0  0  0  0  0  0  0  0  0  0  0
  1  2  1  0
  2  3  1  0
  3  4  2  0
  4  5  1  0
  5  6  2  0
  6  7  1  0
  7  8  1  0
  8  9  1  0
  9 10  1  0
 10 11  1  0
 11 12  1  0
 12 13  1  0
 13 14  1  0
 12 15  1  0
 15 16  1  0
 16 17  2  0
 17 18  1  0
 18 19  2  0
 19 20  1  0
 20 21  2  0
 21 22  1  0
 22 23  2  0
 23 24  1  0
 24 25  1  0
 25 26  1  0
 26 27  2  0
 27 28  1  0
 28 29  2  0
 29 30  1  0
 29 31  1  0
 31 32  2  0
  6 33  1  0
 33 34  2  0
 34  3  1  0
 14  9  1  0
 24 16  1  0
 23 18  1  0
 32 26  1  0
M  END
$$$$
5582
     RDKit          2D

 33 35  0  0  0  0  0  0  0  0999 V2000
    3.7500   -1.2990    0.0000 C   0  0  0  0  0  0  0  0  0  0  0  0
    3.0000    0.0000    0.0000 O   0  0  0  0  0  0  0  0  0  0  0  0
    1.5000    0.0000    0.0000 C   0  0  0  0  0  0  0  0  0  0  0  0
    0.7500   -1.2990    0.0000 C   0  0  0  0  0  0  0  0  0  0  0  0
   -0.7500   -1.2990    0.0000 C   0  0  0  0  0  0  0  0  0  0  0  0
   -1.5000    0.0000    0.0000 C   0  0  0  0  0  0  0  0  0  0  0  0
   -3.0000    0.0000    0.0000 Cl  0  0  0  0  0  0  0  0  0  0  0  0
   -0.7500    1.2990    0.0000 C   0  0  0  0  0  0  0  0  0  0  0  0
    0.7500    1.2990    0.0000 C   0  0  0  0  0  0  0  0  0  0  0  0
    1.5000    2.5981    0.0000 C   0  0  0  0  0  0  0  0  0  0  0  0
    0.7500    3.8971    0.0000 O   0  0  0  0  0  0  0  0  0  0  0  0
    3.0000    2.5981    0.0000 N   0  0  0  0  0  0  0  0  0  0  0  0
    3.7500    3.8971    0.0000 C   0  0  0  0  0  0  0  0  0  0  0  0
    5.2500    3.8971    0.0000 C   0  0  0  0  0  0  0  0  0  0  0  0
    6.0000    5.1962    0.0000 C   0  0  0  0  0  0  0  0  0  0  0  0
    7.5000    5.1962    0.0000 C   0  0  0  0  0  0  0  0  0  0  0  0
    8.2500    6.4952    0.0000 C   0  0  0  0  0  0  0  0  0  0  0  0
    7.5000    7.7942    0.0000 C   0  0  0  0  0  0  0  0  0  0  0  0
    6.0000    7.7942    0.0000 C   0  0  0  0  0  0  0  0  0  0  0  0
    5.2500    6.4952    0.0000 C   0  0  0  0  0  0  0  0  0  0  0  0
    8.2500    9.0933    0.0000 S   0  0  0  0  0  0  0  0  0  0  0  0
    9.5490    8.3433    0.0000 O   0  0  0  0  0  0  0  0  0  0  0  0
    6.9510    9.8433    0.0000 O   0  0  0  0  0  0  0  0  0  0  0  0
    9.0000   10.3923    0.0000 N   0  0  0  0  0  0  0  0  0  0  0  0
    8.2500   11.6913    0.0000 C   0  0  0  0  0  0  0  0  0  0  0  0
    6.7500   11.6913    0.0000 O   0  0  0  0  0  0  0  0  0  0  0  0
    9.0000   12.9904    0.0000 N   0  0  0  0  0  0  0  0  0  0  0  0
    8.2500   14.2894    0.0000 C   0  0  0  0  0  0  0  0  0  0  0  0
    9.0000   15.5885    0.0000 C   0  0  0  0  0  0  0  0  0  0  0  0
    8.2500   16.8875    0.0000 C   0  0  0  0  0  0  0  0  0  0  0  0
    6.7500   16.8875    0.0000 C   0  0  0  0  0  0  0  0  0  0  0  0
    6.0000   15.5885    0.0000 C   0  0  0  0  0  0  0  0  0  0  0  0
    6.7500   14.2894    0.0000 C   0  0  0  0  0  0  0  0  0  0  0  0
  1  2  1  0
  2  3  1  0
  3  4  2  0
  4  5  1  0
  5  6  2  0
  6  7  1  0
  6  8  1  0
  8  9  2  0
  9 10  1  0
 10 11  2  0
 10 12  1  0
 12 13  1  0
 13 14  1  0
 14 15  1  0
 15 16  2  0
 16 17  1  0
 17 18  2  0
 18 19  1  0
 19 20  2  0
 18 21  1  0
 21 22  2  0
 21 23  2  0
 21 24  1  0
 24 25  1  0
 25 26  2  0
 25 27  1  0
 27 28  1  0
 28 29  1  0
 29 30  1  0
 30 31  1  0
 31 32  1  0
 32 33  1  0
  9  3  1  0
 20 15  1  0
 33 28  1  0
M  END
$$$$
10661
     RDKit          2D

 21 22  0  0  0  0  0  0  0  0999 V2000
    3.7500   -1.2990    0.0000 C   0  0  0  0  0  0  0  0  0  0  0  0
    3.0000    0.0000    0.0000 O   0  0  0  0  0  0  0  0  0  0  0  0
    1.5000    0.0000    0.0000 C   0  0  0  0  0  0  0  0  0  0  0  0
    0.7500   -1.2990    0.0000 C   0  0  0  0  0  0  0  0  0  0  0  0
   -0.7500   -1.2990    0.0000 C   0  0  0  0  0  0  0  0  0  0  0  0
   -1.5000    0.0000    0.0000 C   0  0  0  0  0  0  0  0  0  0  0  0
   -3.0000    0.0000    0.0000 C   0  0  0  0  0  0  0  0  0  0  0  0
   -3.7500    1.2990    0.0000 N   0  0  0  0  0  0  0  0  0  0  0  0
   -5.2500    1.2990    0.0000 C   0  0  0  0  0  0  0  0  0  0  0  0
   -6.0000    2.5981    0.0000 C   0  0  0  0  0  0  0  0  0  0  0  0
   -7.5000    2.5981    0.0000 N   0  0  0  0  0  0  0  0  0  0  0  0
   -8.2500    3.8971    0.0000 C   0  0  0  0  0  0  0  0  0  0  0  0
   -8.2500    1.2990    0.0000 C   0  0  0  0  0  0  0  0  0  0  0  0
   -3.0000    2.5981    0.0000 C   0  0  0  0  0  0  0  0  0  0  0  0
   -1.5000    2.5981    0.0000 C   0  0  0  0  0  0  0  0  0  0  0  0
   -0.7500    3.8971    0.0000 C   0  0  0  0  0  0  0  0  0  0  0  0
   -1.5000    5.1962    0.0000 C   0  0  0  0  0  0  0  0  0  0  0  0
   -3.0000    5.1962    0.0000 C   0  0  0  0  0  0  0  0  0  0  0  0
   -3.7500    3.8971    0.0000 N   0  0  0  0  0  0  0  0  0  0  0  0
   -0.7500    1.2990    0.0000 C   0  0  0  0  0  0  0  0  0  0  0  0
    0.7500    1.2990    0.0000 C   0  0  0  0  0  0  0  0  0  0  0  0
  1  2  1  0
  2  3  1  0
  3  4  2  0
  4  5  1  0
  5  6  2  0
  6  7  1  0
  7  8  1  0
  8  9  1  0
  9 10  1  0
 10 11  1  0
 11 12  1  0
 11 13  1  0
  8 14  1  0
 14 15  2  0
 15 16  1  0
 16 17  2  0
 17 18  1  0
 18 19  2  0
  6 20  1  0
 20 21  2  0
 21  3  1  0
 19 14  1  0
M  END
$$$$
674957
     RDKit          2D

 29 29  0  0  0  0  0  0  0  0999 V2000
    3.7500   -1.2990    0.0000 C   0  0  0  0  0  0  0  0  0  0  0  0
    3.0000    0.0000    0.0000 O   0  0  0  0  0  0  0  0  0  0  0  0
    1.5000    0.0000    0.0000 C   0  0  0  0  0  0  0  0  0  0  0  0
    0.7500   -1.2990    0.0000 C   0  0  0  0  0  0  0  0  0  0  0  0
   -0.7500   -1.2990    0.0000 C   0  0  0  0  0  0  0  0  0  0  0  0
   -1.5000    0.0000    0.0000 C   0  0  0  0  0  0  0  0  0  0  0  0
   -3.0000    0.0000    0.0000 C   0  0  0  0  0  0  0  0  0  0  0  0
   -3.7500    1.2990    0.0000 N   0  0  0  0  0  0  0  0  0  0  0  0
   -5.2500    1.2990    0.0000 C   0  0  0  0  0  0  0  0  0  0  0  0
   -6.0000    2.5981    0.0000 C   0  0  0  0  0  0  0  0  0  0  0  0
   -7.5000    2.5981    0.0000 N   0  0  0  0  0  0  0  0  0  0  0  0
   -8.2500    3.8971    0.0000 C   0  0  0  0  0  0  0  0  0  0  0  0
   -8.2500    1.2990    0.0000 C   0  0  0  0  0  0  0  0  0  0  0  0
   -3.0000    2.5981    0.0000 C   0  0  0  0  0  0  0  0  0  0  0  0
   -1.5000    2.5981    0.0000 C   0  0  0  0  0  0  0  0  0  0  0  0
   -0.7500    3.8971    0.0000 C   0  0  0  0  0  0  0  0  0  0  0  0
   -1.5000    5.1962    0.0000 C   0  0  0  0  0  0  0  0  0  0  0  0
   -3.0000    5.1962    0.0000 C   0  0  0  0  0  0  0  0  0  0  0  0
   -3.7500    3.8971    0.0000 N   0  0  0  0  0  0  0  0  0  0  0  0
   -0.7500    1.2990    0.0000 C   0  0  0  0  0  0  0  0  0  0  0  0
    0.7500    1.2990    0.0000 C   0  0  0  0  0  0  0  0  0  0  0  0
   -2.2500    7.4952    0.0000 O   0  0  0  0  0  0  0  0  0  0  0  0
   -0.7500    7.4952    0.0000 C   0  0  0  0  0  0  0  0  0  0  0  0
    0.0000    6.1962    0.0000 O   0  0  0  0  0  0  0  0  0  0  0  0
    0.0000    8.7942    0.0000 C   0  0  0  0  0  0  0  0  0  0  0  0
    1.5000    8.7942    0.0000 C   0  0  0  0  0  0  0  0  0  0  0  0
    2.2500    7.4952    0.0000 C   0  0  0  0  0  0  0  0  0  0  0  0
    1.5000    6.1962    0.0000 O   0  0  0  0  0  0  0  0  0  0  0  0
    3.7500    7.4952    0.0000 O   0  0  0  0  0  0  0  0  0  0  0  0
  1  2  1  0
  2  3  1  0
  3  4  2  0
  4  5  1  0
  5  6  2  0
  6  7  1  0
  7  8  1  0
  8  9  1  0
  9 10  1  0
 10 11  1  0
 11 12  1  0
 11 13  1  0
  8 14  1  0
 14 15  2  0
 15 16  1  0
 16 17  2  0
 17 18  1  0
 18 19  2  0
  6 20  1  0
 20 21  2  0
 22 23  1  0
 23 24  2  0
 23 25  1  0
 25 26  2  0
 26 27  1  0
 27 28  2  0
 27 29  1  0
 21  3  1  0
 19 14  1  0
M  END
$$$$
1425665
     RDKit          2D

 42 45  0  0  0  0  0  0  0  0999 V2000
    3.7500   -1.2990    0.0000 C   0  0  0  0  0  0  0  0  0  0  0  0
    3.0000    0.0000    0.0000 O   0  0  0  0  0  0  0  0  0  0  0  0
    1.5000    0.0000    0.0000 C   0  0  0  0  0  0  0  0  0  0  0  0
    0.7500   -1.2990    0.0000 C   0  0  0  0  0  0  0  0  0  0  0  0
   -0.7500   -1.2990    0.0000 C   0  0  0  0  0  0  0  0  0  0  0  0
   -1.5000    0.0000    0.0000 C   0  0  0  0  0  0  0  0  0  0  0  0
   -3.0000    0.0000    0.0000 C   0  0  0  0  0  0  0  0  0  0  0  0
   -3.7500    1.2990    0.0000 N   0  0  0  0  0  0  0  0  0  0  0  0
   -5.2500    1.2990    0.0000 C   0  0  0  0  0  0  0  0  0  0  0  0
   -6.0000    2.5981    0.0000 C   0  0  0  0  0  0  0  0  0  0  0  0
   -6.0000    0.0000    0.0000 C   0  0  0  0  0  0  0  0  0  0  0  0
   -5.3899   -1.3703    0.0000 N   0  0  0  0  0  0  0  0  0  0  0  0
   -6.5046   -2.3740    0.0000 C   0  0  0  0  0  0  0  0  0  0  0  0
   -7.8037   -1.6240    0.0000 C   0  0  0  0  0  0  0  0  0  0  0  0
   -7.4918   -0.1568    0.0000 N   0  0  0  0  0  0  0  0  0  0  0  0
   -6.3478   -3.8658    0.0000 C   0  0  0  0  0  0  0  0  0  0  0  0
   -7.5613   -4.7475    0.0000 C   0  0  0  0  0  0  0  0  0  0  0  0
   -7.4046   -6.2393    0.0000 C   0  0  0  0  0  0  0  0  0  0  0  0
   -6.0342   -6.8494    0.0000 C   0  0  0  0  0  0  0  0  0  0  0  0
   -4.8207   -5.9677    0.0000 C   0  0  0  0  0  0  0  0  0  0  0  0
   -4.9775   -4.4759    0.0000 C   0  0  0  0  0  0  0  0  0  0  0  0
   -3.0000    2.5981    0.0000 C   0  0  0  0  0  0  0  0  0  0  0  0
   -1.5000    2.5981    0.0000 O   0  0  0  0  0  0  0  0  0  0  0  0
   -3.7500    3.8971    0.0000 C   0  0  0  0  0  0  0  0  0  0  0  0
   -5.2500    3.8971    0.0000 N   0  0  0  0  0  0  0  0  0  0  0  0
   -3.0000    5.1962    0.0000 C   0  0  0  0  0  0  0  0  0  0  0  0
   -3.7500    6.4952    0.0000 C   0  0  0  0  0  0  0  0  0  0  0  0
   -3.0000    7.7942    0.0000 C   0  0  0  0  0  0  0  0  0  0  0  0
   -1.5000    7.7942    0.0000 C   0  0  0  0  0  0  0  0  0  0  0  0
   -3.7500    9.0933    0.0000 C   0  0  0  0  0  0  0  0  0  0  0  0
   -5.2500    9.0933    0.0000 C   0  0  0  0  0  0  0  0  0  0  0  0
   -6.0000    7.7942    0.0000 C   0  0  0  0  0  0  0  0  0  0  0  0
   -5.2500    6.4952    0.0000 C   0  0  0  0  0  0  0  0  0  0  0  0
   -6.0000    5.1962    0.0000 C   0  0  0  0  0  0  0  0  0  0  0  0
   -6.0000   10.3923    0.0000 C   0  0  0  0  0  0  0  0  0  0  0  0
   -7.5000   10.3923    0.0000 O   0  0  0  0  0  0  0  0  0  0  0  0
   -5.2500   11.6913    0.0000 N   0  0  0  0  0  0  0  0  0  0  0  0
   -0.7500    1.2990    0.0000 C   0  0  0  0  0  0  0  0  0  0  0  0
    0.7500    1.2990    0.0000 C   0  0  0  0  0  0  0  0  0  0  0  0
    1.5000    2.5981    0.0000 C   0  0  0  0  0  0  0  0  0  0  0  0
    0.7500    3.8971    0.0000 O   0  0  0  0  0  0  0  0  0  0  0  0
    3.0000    2.5981    0.0000 O   0  0  0  0  0  0  0  0  0  0  0  0
  1  2  1  0
  2  3  1  0
  3  4  2  0
  4  5  1  0
  5  6  2  0
  6  7  1  0
  7  8  1  0
  8  9  1  0
  9 10  1  6
  9 11  1  0
 11 12  2  0
 12 13  1  0
 13 14  2  0
 14 15  1  0
 13 16  1  0
 16 17  2  0
 17 18  1  0
 18 19  2  0
 19 20  1  0
 20 21  2  0
  8 22  1  0
 22 23  2  0
 22 24  1  0
 24 25  1  1
 24 26  1  0
 26 27  1  0
 27 28  2  0
 28 29  1  0
 28 30  1  0
 30 31  2  0
 31 32  1  0
 32 33  2  0
 33 34  1  0
 31 35  1  0
 35 36  2  0
 35 37  1  0
  6 38  1  0
 38 39  2  0
 39 40  1  0
 40 41  2  0
 40 42  1  0
 39  3  1  0
 15 11  1  0
 21 16  1  0
 33 27  1  0
M  END
$$$$
1285392
     RDKit          2D

 34 37  0  0  0  0  0  0  0  0999 V2000
    3.7500   -1.2990    0.0000 C   0  0  0  0  0  0  0  0  0  0  0  0
    3.0000    0.0000    0.0000 O   0  0  0  0  0  0  0  0  0  0  0  0
    1.5000    0.0000    0.0000 C   0  0  0  0  0  0  0  0  0  0  0  0
    0.7500   -1.2990    0.0000 C   0  0  0  0  0  0  0  0  0  0  0  0
   -0.7500   -1.2990    0.0000 C   0  0  0  0  0  0  0  0  0  0  0  0
   -1.5000    0.0000    0.0000 C   0  0  0  0  0  0  0  0  0  0  0  0
   -3.0000    0.0000    0.0000 C   0  0  0  0  0  0  0  0  0  0  0  0
   -3.7500    1.2990    0.0000 N   0  0  0  0  0  0  0  0  0  0  0  0
   -5.2500    1.2990    0.0000 C   0  0  0  0  0  0  0  0  0  0  0  0
   -6.0000    2.5981    0.0000 N   0  0  0  0  0  0  0  0  0  0  0  0
   -7.5000    2.5981    0.0000 C   0  0  0  0  0  0  0  0  0  0  0  0
   -8.2500    1.2990    0.0000 N   0  0  0  0  0  0  0  0  0  0  0  0
   -7.5000    0.0000    0.0000 C   0  0  0  0  0  0  0  0  0  0  0  0
   -6.0000    0.0000    0.0000 C   0  0  0  0  0  0  0  0  0  0  0  0
   -5.2500   -1.2990    0.0000 C   0  0  0  0  0  0  0  0  0  0  0  0
   -3.7500   -1.2990    0.0000 O   0  0  0  0  0  0  0  0  0  0  0  0
   -6.0000   -2.5981    0.0000 N   0  0  0  0  0  0  0  0  0  0  0  0
   -5.2500   -3.8971    0.0000 C   0  0  0  0  0  0  0  0  0  0  0  0
   -6.0000   -5.1962    0.0000 C   0  0  0  0  0  0  0  0  0  0  0  0
   -7.5000   -5.1962    0.0000 N   0  0  0  0  0  0  0  0  0  0  0  0
   -8.2500   -6.4952    0.0000 C   0  0  0  0  0  0  0  0  0  0  0  0
   -7.5000   -7.7942    0.0000 C   0  0  0  0  0  0  0  0  0  0  0  0
   -6.0000   -7.7942    0.0000 C   0  0  0  0  0  0  0  0  0  0  0  0
   -5.2500   -6.4952    0.0000 N   0  0  0  0  0  0  0  0  0  0  0  0
   -8.2500    3.8971    0.0000 N   0  0  0  0  0  0  0  0  0  0  0  0
   -9.7418    4.0539    0.0000 C   0  0  0  0  0  0  0  0  0  0  0  0
  -10.0537    5.5211    0.0000 C   0  0  0  0  0  0  0  0  0  0  0  0
   -8.7546    6.2711    0.0000 C   0  0  0  0  0  0  0  0  0  0  0  0
   -7.6399    5.2674    0.0000 C   0  0  0  0  0  0  0  0  0  0  0  0
   -6.1727    5.5793    0.0000 C   0  0  0  0  0  0  0  0  0  0  0  0
   -5.7091    7.0059    0.0000 O   0  0  0  0  0  0  0  0  0  0  0  0
   -0.7500    1.2990    0.0000 C   0  0  0  0  0  0  0  0  0  0  0  0
    0.7500    1.2990    0.0000 C   0  0  0  0  0  0  0  0  0  0  0  0
    1.5000    2.5981    0.0000 Cl  0  0  0  0  0  0  0  0  0  0  0  0
  1  2  1  0
  2  3  1  0
  3  4  2  0
  4  5  1  0
  5  6  2  0
  6  7  1  0
  7  8  1  0
  8  9  1  0
  9 10  2  0
 10 11  1  0
 11 12  2  0
 12 13  1  0
 13 14  2  0
 14 15  1  0
 15 16  2  0
 15 17  1  0
 17 18  1  0
 18 19  1  0
 19 20  2  0
 20 21  1  0
 21 22  2  0
 22 23  1  0
 23 24  2  0
 11 25  1  0
 25 26  1  0
 26 27  1  0
 27 28  1  0
 28 29  1  0
 29 30  1  1
 30 31  1  0
  6 32  1  0
 32 33  2  0
 33 34  1  0
 33  3  1  0
 14  9  1  0
 24 19  1  0
 29 25  1  0
M  END
$$$$
675163
     RDKit          2D

 18 18  0  0  0  0  0  0  0  0999 V2000
    3.7500   -1.2990    0.0000 C   0  0  0  0  0  0  0  0  0  0  0  0
    3.0000    0.0000    0.0000 O   0  0  0  0  0  0  0  0  0  0  0  0
    1.5000    0.0000    0.0000 C   0  0  0  0  0  0  0  0  0  0  0  0
    0.7500   -1.2990    0.0000 C   0  0  0  0  0  0  0  0  0  0  0  0
   -0.7500   -1.2990    0.0000 C   0  0  0  0  0  0  0  0  0  0  0  0
   -1.5000    0.0000    0.0000 C   0  0  0  0  0  0  0  0  0  0  0  0
   -3.0000    0.0000    0.0000 O   0  0  0  0  0  0  0  0  0  0  0  0
   -3.7500   -1.2990    0.0000 C   0  0  0  0  0  0  0  0  0  0  0  0
   -0.7500    1.2990    0.0000 C   0  0  0  0  0  0  0  0  0  0  0  0
    0.7500    1.2990    0.0000 C   0  0  0  0  0  0  0  0  0  0  0  0
   -1.5000    2.5981    0.0000 C   0  0  0  0  0  0  0  0  0  0  0  0
   -3.0000    2.5981    0.0000 O   0  0  0  0  0  0  0  0  0  0  0  0
   -0.7500    3.8971    0.0000 C   0  0  0  0  0  0  0  0  0  0  0  0
   -1.5000    5.1962    0.0000 N   0  0  0  0  0  0  0  0  0  0  0  0
   -0.7500    6.4952    0.0000 C   0  0  0  0  0  0  0  0  0  0  0  0
    0.7500    6.4952    0.0000 O   0  0  0  0  0  0  0  0  0  0  0  0
   -1.5000    7.7942    0.0000 C   0  0  0  0  0  0  0  0  0  0  0  0
   -0.7500    9.0933    0.0000 N   0  0  0  0  0  0  0  0  0  0  0  0
  1  2  1  0
  2  3  1  0
  3  4  2  0
  4  5  1  0
  5  6  2  0
  6  7  1  0
  7  8  1  0
  6  9  1  0
  9 10  2  0
  9 11  1  0
 11 12  1  0
 11 13  1  0
 13 14  1  0
 14 15  1  0
 15 16  2  0
 15 17  1  0
 17 18  1  0
 10  3  1  0
M  END
$$$$
173
     RDKit          2D

 25 27  0  0  0  0  0  0  0  0999 V2000
    3.7500   -1.2990    0.0000 C   0  0  0  0  0  0  0  0  0  0  0  0
    3.0000    0.0000    0.0000 O   0  0  0  0  0  0  0  0  0  0  0  0
    1.5000    0.0000    0.0000 C   0  0  0  0  0  0  0  0  0  0  0  0
    0.7500   -1.2990    0.0000 C   0  0  0  0  0  0  0  0  0  0  0  0
   -0.7500   -1.2990    0.0000 C   0  0  0  0  0  0  0  0  0  0  0  0
   -1.5000    0.0000    0.0000 C   0  0  0  0  0  0  0  0  0  0  0  0
   -0.7500    1.2990    0.0000 C   0  0  0  0  0  0  0  0  0  0  0  0
    0.7500    1.2990    0.0000 C   0  0  0  0  0  0  0  0  0  0  0  0
   -1.7537    2.4138    0.0000 C   0  0  0  0  0  0  0  0  0  0  0  0
   -1.4418    3.8810    0.0000 C   0  0  0  0  0  0  0  0  0  0  0  0
   -2.5565    4.8847    0.0000 C   0  0  0  0  0  0  0  0  0  0  0  0
   -3.9831    4.4211    0.0000 O   0  0  0  0  0  0  0  0  0  0  0  0
   -2.2447    6.3519    0.0000 O   0  0  0  0  0  0  0  0  0  0  0  0
   -3.1240    1.8037    0.0000 C   0  0  0  0  0  0  0  0  0  0  0  0
   -4.4231    2.5537    0.0000 C   0  0  0  0  0  0  0  0  0  0  0  0
   -2.9672    0.3119    0.0000 N   0  0  0  0  0  0  0  0  0  0  0  0
   -4.0819   -0.6918    0.0000 C   0  0  0  0  0  0  0  0  0  0  0  0
   -3.7701   -2.1590    0.0000 O   0  0  0  0  0  0  0  0  0  0  0  0
   -5.5085   -0.2283    0.0000 C   0  0  0  0  0  0  0  0  0  0  0  0
   -5.8204    1.2389    0.0000 C   0  0  0  0  0  0  0  0  0  0  0  0
   -7.2470    1.7024    0.0000 C   0  0  0  0  0  0  0  0  0  0  0  0
   -8.3617    0.6987    0.0000 C   0  0  0  0  0  0  0  0  0  0  0  0
   -9.7883    1.1623    0.0000 Cl  0  0  0  0  0  0  0  0  0  0  0  0
   -8.0498   -0.7685    0.0000 C   0  0  0  0  0  0  0  0  0  0  0  0
   -6.6232   -1.2320    0.0000 C   0  0  0  0  0  0  0  0  0  0  0  0
  1  2  1  0
  2  3  1  0
  3  4  2  0
  4  5  1  0
  5  6  2  0
  6  7  1  0
  7  8  2  0
  7  9  1  0
  9 10  1  0
 10 11  1  0
 11 12  2  0
 11 13  1  0
  9 14  2  0
 14 15  1  0
 14 16  1  0
 16 17  1  0
 17 18  2  0
 17 19  1  0
 19 20  2  0
 20 21  1  0
 21 22  2  0
 22 23  1  0
 22 24  1  0
 24 25  2  0
  8  3  1  0
 16  6  1  0
 25 19  1  0
M  END
$$$$
451744
     RDKit          2D

 52 58  0  0  0  0  0  0  0  0999 V2000
   -9.4994  -13.6502    0.0000 C   0  0  0  0  0  0  0  0  0  0  0  0
   -8.0661  -13.2081    0.0000 O   0  0  0  0  0  0  0  0  0  0  0  0
   -7.7323  -11.7457    0.0000 C   0  0  0  0  0  0  0  0  0  0  0  0
   -6.2989  -11.3035    0.0000 C   0  0  0  0  0  0  0  0  0  0  0  0
   -5.9652   -9.8411    0.0000 C   0  0  0  0  0  0  0  0  0  0  0  0
   -7.0647   -8.8209    0.0000 C   0  0  0  0  0  0  0  0  0  0  0  0
   -6.7310   -7.3585    0.0000 C   0  0  0  0  0  0  0  0  0  0  0  0
   -5.2976   -6.9164    0.0000 O   0  0  0  0  0  0  0  0  0  0  0  0
   -4.9638   -5.4540    0.0000 C   0  0  0  0  0  0  0  0  0  0  0  0
   -3.5845   -4.8644    0.0000 C   0  0  0  0  0  0  0  0  0  0  0  0
   -3.7190   -3.3705    0.0000 C   0  0  0  0  0  0  0  0  0  0  0  0
   -5.1814   -3.0367    0.0000 C   0  0  0  0  0  0  0  0  0  0  0  0
   -5.9507   -4.3244    0.0000 C   0  0  0  0  0  0  0  0  0  0  0  0
   -6.3541   -2.1015    0.0000 C   0  0  0  0  0  0  0  0  0  0  0  0
   -7.5269   -3.0367    0.0000 O   0  0  0  0  0  0  0  0  0  0  0  0
   -7.0049   -0.7500    0.0000 N   0  0  0  0  0  0  0  0  0  0  0  0
   -8.4673   -1.0838    0.0000 C   0  0  0  0  0  0  0  0  0  0  0  0
   -7.0049    0.7500    0.0000 C   0  0  0  0  0  0  0  0  0  0  0  0
   -6.3541    2.1015    0.0000 C   0  0  0  0  0  0  0  0  0  0  0  0
   -5.1814    3.0367    0.0000 C   0  0  0  0  0  0  0  0  0  0  0  0
   -3.7190    3.3705    0.0000 C   0  0  0  0  0  0  0  0  0  0  0  0
   -2.2566    3.0367    0.0000 C   0  0  0  0  0  0  0  0  0  0  0  0
   -1.0838    2.1015    0.0000 C   0  0  0  0  0  0  0  0  0  0  0  0
   -0.4330    0.7500    0.0000 C   0  0  0  0  0  0  0  0  0  0  0  0
    0.8660    0.0000    0.0000 C   0  0  0  0  0  0  0  0  0  0  0  0
   -0.4330   -0.7500    0.0000 C   0  0  0  0  0  0  0  0  0  0  0  0
   -1.0838   -2.1015    0.0000 N   0  0  0  0  0  0  0  0  0  0  0  0
   -2.2566   -3.0367    0.0000 C   0  0  0  0  0  0  0  0  0  0  0  0
   -1.6058   -4.3881    0.0000 O   0  0  0  0  0  0  0  0  0  0  0  0
    0.6666   -1.7703    0.0000 C   0  0  0  0  0  0  0  0  0  0  0  0
    0.3328   -3.2327    0.0000 O   0  0  0  0  0  0  0  0  0  0  0  0
    2.0999   -1.3281    0.0000 N   0  0  0  0  0  0  0  0  0  0  0  0
    3.1995   -2.3484    0.0000 S   0  0  0  0  0  0  0  0  0  0  0  0
    2.1792   -3.4480    0.0000 O   0  0  0  0  0  0  0  0  0  0  0  0
    4.2198   -1.2488    0.0000 O   0  0  0  0  0  0  0  0  0  0  0  0
    4.2991   -3.3686    0.0000 C   0  0  0  0  0  0  0  0  0  0  0  0
    5.7615   -3.7024    0.0000 C   0  0  0  0  0  0  0  0  0  0  0  0
    4.7412   -4.8020    0.0000 C   0  0  0  0  0  0  0  0  0  0  0  0
   -7.8305   -6.3382    0.0000 C   0  0  0  0  0  0  0  0  0  0  0  0
   -9.2639   -6.7804    0.0000 C   0  0  0  0  0  0  0  0  0  0  0  0
   -9.5977   -8.2428    0.0000 N   0  0  0  0  0  0  0  0  0  0  0  0
   -8.4981   -9.2630    0.0000 C   0  0  0  0  0  0  0  0  0  0  0  0
   -8.8319  -10.7254    0.0000 C   0  0  0  0  0  0  0  0  0  0  0  0
  -10.2652  -11.1675    0.0000 C   0  0  0  0  0  0  0  0  0  0  0  0
  -10.3635   -5.7601    0.0000 C   0  0  0  0  0  0  0  0  0  0  0  0
  -11.8352   -6.0500    0.0000 N   0  0  0  0  0  0  0  0  0  0  0  0
  -12.5657   -4.7399    0.0000 C   0  0  0  0  0  0  0  0  0  0  0  0
  -11.5454   -3.6403    0.0000 C   0  0  0  0  0  0  0  0  0  0  0  0
  -10.1844   -4.2708    0.0000 S   0  0  0  0  0  0  0  0  0  0  0  0
  -14.0549   -4.5608    0.0000 C   0  0  0  0  0  0  0  0  0  0  0  0
  -14.6445   -3.1815    0.0000 C   0  0  0  0  0  0  0  0  0  0  0  0
  -14.9547   -5.7610    0.0000 C   0  0  0  0  0  0  0  0  0  0  0  0
  1  2  1  0
  2  3  1  0
  3  4  2  0
  4  5  1  0
  5  6  2  0
  6  7  1  0
  7  8  1  0
  9  8  1  1
  9 10  1  0
 11 10  1  6
 11 12  1  0
 12 13  1  1
 12 14  1  0
 14 15  2  0
 14 16  1  0
 16 17  1  0
 16 18  1  0
 18 19  1  0
 19 20  1  0
 20 21  1  0
 21 22  1  0
 22 23  2  0
 23 24  1  0
 24 25  1  6
 25 26  1  0
 26 27  1  0
 27 28  1  0
 28 29  2  0
 26 30  1  6
 30 31  2  0
 30 32  1  0
 32 33  1  0
 33 34  2  0
 33 35  2  0
 33 36  1  0
 36 37  1  0
 37 38  1  0
  7 39  2  0
 39 40  1  0
 40 41  2  0
 41 42  1  0
 42 43  2  0
 43 44  1  0
 40 45  1  0
 45 46  2  0
 46 47  1  0
 47 48  2  0
 48 49  1  0
 47 50  1  0
 50 51  1  0
 50 52  1  0
 43  3  1  0
 42  6  1  0
 13  9  1  0
 28 11  1  0
 26 24  1  0
 38 36  1  0
 49 45  1  0
M  END
$$$$
139210
     RDKit          2D

 17 18  0  0  0  0  0  0  0  0999 V2000
    3.7500   -1.2990    0.0000 C   0  0  0  0  0  0  0  0  0  0  0  0
    3.0000    0.0000    0.0000 O   0  0  0  0  0  0  0  0  0  0  0  0
    1.5000    0.0000    0.0000 C   0  0  0  0  0  0  0  0  0  0  0  0
    0.7500   -1.2990    0.0000 C   0  0  0  0  0  0  0  0  0  0  0  0
   -0.7500   -1.2990    0.0000 C   0  0  0  0  0  0  0  0  0  0  0  0
   -1.5000    0.0000    0.0000 C   0  0  0  0  0  0  0  0  0  0  0  0
   -3.0000    0.0000    0.0000 C   0  0  0  0  0  0  0  0  0  0  0  0
   -3.7500    1.2990    0.0000 C   0  0  0  0  0  0  0  0  0  0  0  0
   -5.2500    1.2990    0.0000 C   0  0  0  0  0  0  0  0  0  0  0  0
   -6.0000    2.5981    0.0000 C   0  0  0  0  0  0  0  0  0  0  0  0
   -7.5000    2.5981    0.0000 C   0  0  0  0  0  0  0  0  0  0  0  0
   -8.2500    1.2990    0.0000 O   0  0  0  0  0  0  0  0  0  0  0  0
   -8.2500    3.8971    0.0000 C   0  0  0  0  0  0  0  0  0  0  0  0
   -3.0000    2.5981    0.0000 C   0  0  0  0  0  0  0  0  0  0  0  0
   -1.5000    2.5981    0.0000 C   0  0  0  0  0  0  0  0  0  0  0  0
   -0.7500    1.2990    0.0000 C   0  0  0  0  0  0  0  0  0  0  0  0
    0.7500    1.2990    0.0000 C   0  0  0  0  0  0  0  0  0  0  0  0
  1  2  1  0
  2  3  1  0
  3  4  2  0
  4  5  1  0
  5  6  2  0
  6  7  1  0
  7  8  2  0
  8  9  1  0
  9 10  1  0
 10 11  1  0
 11 12  2  0
 11 13  1  0
  8 14  1  0
 14 15  2  0
 15 16  1  0
 16 17  2  0
 17  3  1  0
 16  6  1  0
M  END
$$$$
51056
     RDKit          2D

 17 18  0  0  0  0  0  0  0  0999 V2000
    3.7500   -1.2990    0.0000 C   0  0  0  0  0  0  0  0  0  0  0  0
    3.0000    0.0000    0.0000 O   0  0  0  0  0  0  0  0  0  0  0  0
    1.5000    0.0000    0.0000 C   0  0  0  0  0  0  0  0  0  0  0  0
    0.7500   -1.2990    0.0000 C   0  0  0  0  0  0  0  0  0  0  0  0
   -0.7500   -1.2990    0.0000 C   0  0  0  0  0  0  0  0  0  0  0  0
   -1.5000    0.0000    0.0000 C   0  0  0  0  0  0  0  0  0  0  0  0
   -3.0000    0.0000    0.0000 C   0  0  0  0  0  0  0  0  0  0  0  0
   -3.7500    1.2990    0.0000 C   0  0  0  0  0  0  0  0  0  0  0  0
   -3.0000    2.5981    0.0000 C   0  0  0  0  0  0  0  0  0  0  0  0
   -1.5000    2.5981    0.0000 C   0  0  0  0  0  0  0  0  0  0  0  0
   -0.7500    1.2990    0.0000 C   0  0  0  0  0  0  0  0  0  0  0  0
    0.7500    1.2990    0.0000 C   0  0  0  0  0  0  0  0  0  0  0  0
   -5.2500    1.2990    0.0000 C   0  0  0  0  0  0  0  0  0  0  0  0
   -6.0000    2.5981    0.0000 C   0  0  0  0  0  0  0  0  0  0  0  0
   -6.0000    0.0000    0.0000 C   0  0  0  0  0  0  0  0  0  0  0  0
   -5.2500   -1.2990    0.0000 O   0  0  0  0  0  0  0  0  0  0  0  0
   -7.5000    0.0000    0.0000 O   0  0  0  0  0  0  0  0  0  0  0  0
  1  2  1  0
  2  3  1  0
  3  4  2  0
  4  5  1  0
  5  6  2  0
  6  7  1  0
  7  8  2  0
  8  9  1  0
  9 10  2  0
 10 11  1  0
 11 12  2  0
  8 13  1  0
 13 14  1  1
 13 15  1  0
 15 16  2  0
 15 17  1  0
 12  3  1  0
 11  6  1  0
M  END
$$$$
27639
     RDKit          2D

 21 24  0  0  0  0  0  0  0  0999 V2000
   -0.8999   -7.4725    0.0000 C   0  0  0  0  0  0  0  0  0  0  0  0
   -1.0567   -5.9808    0.0000 O   0  0  0  0  0  0  0  0  0  0  0  0
    0.1568   -5.0991    0.0000 C   0  0  0  0  0  0  0  0  0  0  0  0
    1.5271   -5.7092    0.0000 C   0  0  0  0  0  0  0  0  0  0  0  0
    2.7406   -4.8275    0.0000 C   0  0  0  0  0  0  0  0  0  0  0  0
    2.5838   -3.3357    0.0000 C   0  0  0  0  0  0  0  0  0  0  0  0
    3.8940   -2.6052    0.0000 C   0  0  0  0  0  0  0  0  0  0  0  0
    4.1397   -1.1255    0.0000 N   0  0  0  0  0  0  0  0  0  0  0  0
    5.5795   -0.7049    0.0000 C   0  0  0  0  0  0  0  0  0  0  0  0
    3.1360   -0.0108    0.0000 C   0  0  0  0  0  0  0  0  0  0  0  0
    1.6387   -0.1005    0.0000 C   0  0  0  0  0  0  0  0  0  0  0  0
    0.7500   -1.2990    0.0000 C   0  0  0  0  0  0  0  0  0  0  0  0
    0.8000   -0.0000    0.0000 C   0  0  0  0  0  0  0  0  0  0  0  0
    0.4000    0.6928    0.0000 C   0  0  0  0  0  0  0  0  0  0  0  0
   -0.4000    0.6928    0.0000 C   0  0  0  0  0  0  0  0  0  0  0  0
   -1.5000    2.5981    0.0000 O   0  0  0  0  0  0  0  0  0  0  0  0
   -0.8000    0.0000    0.0000 C   0  0  0  0  0  0  0  0  0  0  0  0
   -0.7500   -1.2990    0.0000 C   0  0  0  0  0  0  0  0  0  0  0  0
   -1.2135   -2.7256    0.0000 O   0  0  0  0  0  0  0  0  0  0  0  0
    0.0000   -3.6073    0.0000 C   0  0  0  0  0  0  0  0  0  0  0  0
    1.2135   -2.7256    0.0000 C   0  0  0  0  0  0  0  0  0  0  0  0
  1  2  1  0
  2  3  1  0
  3  4  2  0
  4  5  1  0
  5  6  2  0
  6  7  1  0
  7  8  1  0
  8  9  1  0
  8 10  1  0
 10 11  1  0
 12 11  1  6
 12 13  1  0
 13 14  2  0
 14 15  1  0
 15 16  1  1
 15 17  1  0
 18 17  1  1
 18 19  1  0
 19 20  1  0
 20 21  2  0
 20  3  1  0
 21  6  1  0
 18 12  1  0
 21 12  1  0
M  END
$$$$
6167
     RDKit          2D

 22 26  0  0  0  0  0  0  0  0999 V2000
    3.7500   -1.2990    0.0000 C   0  0  0  0  0  0  0  0  0  0  0  0
    3.0000    0.0000    0.0000 O   0  0  0  0  0  0  0  0  0  0  0  0
    1.5000    0.0000    0.0000 C   0  0  0  0  0  0  0  0  0  0  0  0
    0.7500   -1.2990    0.0000 C   0  0  0  0  0  0  0  0  0  0  0  0
   -0.7500   -1.2990    0.0000 C   0  0  0  0  0  0  0  0  0  0  0  0
   -1.5000    0.0000    0.0000 C   0  0  0  0  0  0  0  0  0  0  0  0
   -3.0000    0.0000    0.0000 C   0  0  0  0  0  0  0  0  0  0  0  0
   -3.7500    1.2990    0.0000 C   0  0  0  0  0  0  0  0  0  0  0  0
   -3.0000    2.5981    0.0000 C   0  0  0  0  0  0  0  0  0  0  0  0
   -3.7500    3.8971    0.0000 C   0  0  0  0  0  0  0  0  0  0  0  0
   -3.0000    5.1962    0.0000 C   0  0  0  0  0  0  0  0  0  0  0  0
   -1.5000    5.1962    0.0000 C   0  0  0  0  0  0  0  0  0  0  0  0
   -0.7500    6.4952    0.0000 O   0  0  0  0  0  0  0  0  0  0  0  0
   -0.7500    3.8971    0.0000 C   0  0  0  0  0  0  0  0  0  0  0  0
    0.6203    3.2870    0.0000 O   0  0  0  0  0  0  0  0  0  0  0  0
    0.7500    1.2990    0.0000 C   0  0  0  0  0  0  0  0  0  0  0  0
   -0.7500    1.2990    0.0000 C   0  0  0  0  0  0  0  0  0  0  0  0
   -1.5000    2.5981    0.0000 C   0  0  0  0  0  0  0  0  0  0  0  0
   -2.6000    3.2909    0.0000 C   0  0  0  0  0  0  0  0  0  0  0  0
   -3.4000    3.2909    0.0000 C   0  0  0  0  0  0  0  0  0  0  0  0
   -3.8000    2.5981    0.0000 N   0  0  0  0  0  0  0  0  0  0  0  0
   -6.0000    2.5981    0.0000 C   0  0  0  0  0  0  0  0  0  0  0  0
  1  2  1  0
  2  3  1  0
  3  4  2  0
  4  5  1  0
  5  6  2  0
  6  7  1  0
  8  7  1  1
  8  9  1  0
  9 10  1  6
 10 11  2  0
 11 12  1  0
 12 13  1  6
 12 14  1  0
 14 15  1  6
 15 16  1  0
 16 17  2  0
 17 18  1  0
 18 19  1  1
 19 20  1  0
 20 21  1  0
 21 22  1  0
 16  3  1  0
 17  6  1  0
 21  8  1  0
 18  9  1  0
 18 14  1  0
M  END
$$$$
37309
     RDKit          2D

 27 30  0  0  0  0  0  0  0  0999 V2000
    3.7500   -1.2990    0.0000 C   0  0  0  0  0  0  0  0  0  0  0  0
    3.0000    0.0000    0.0000 O   0  0  0  0  0  0  0  0  0  0  0  0
    1.5000    0.0000    0.0000 C   0  0  0  0  0  0  0  0  0  0  0  0
    0.7500   -1.2990    0.0000 C   0  0  0  0  0  0  0  0  0  0  0  0
   -0.7500   -1.2990    0.0000 C   0  0  0  0  0  0  0  0  0  0  0  0
   -1.5000    0.0000    0.0000 C   0  0  0  0  0  0  0  0  0  0  0  0
   -3.0000    0.0000    0.0000 C   0  0  0  0  0  0  0  0  0  0  0  0
   -3.7500    1.2990    0.0000 C   0  0  0  0  0  0  0  0  0  0  0  0
   -3.0000    2.5981    0.0000 C   0  0  0  0  0  0  0  0  0  0  0  0
   -3.7500    3.8971    0.0000 C   0  0  0  0  0  0  0  0  0  0  0  0
   -3.0000    5.1962    0.0000 C   0  0  0  0  0  0  0  0  0  0  0  0
   -1.5000    5.1962    0.0000 C   0  0  0  0  0  0  0  0  0  0  0  0
   -0.7500    6.4952    0.0000 O   0  0  0  0  0  0  0  0  0  0  0  0
   -0.7500    3.8971    0.0000 C   0  0  0  0  0  0  0  0  0  0  0  0
    0.6203    3.2870    0.0000 O   0  0  0  0  0  0  0  0  0  0  0  0
    0.7500    1.2990    0.0000 C   0  0  0  0  0  0  0  0  0  0  0  0
   -0.7500    1.2990    0.0000 C   0  0  0  0  0  0  0  0  0  0  0  0
   -1.5000    2.5981    0.0000 C   0  0  0  0  0  0  0  0  0  0  0  0
   -2.6000    3.2909    0.0000 C   0  0  0  0  0  0  0  0  0  0  0  0
   -3.4000    3.2909    0.0000 C   0  0  0  0  0  0  0  0  0  0  0  0
   -3.8000    2.5981    0.0000 N   0  0  0  0  0  0  0  0  0  0  0  0
   -6.0000    2.5981    0.0000 C   0  0  0  0  0  0  0  0  0  0  0  0
    0.0000    8.0442    0.0000 O   0  0  0  0  0  0  0  0  0  0  0  0
    1.2990    8.7942    0.0000 S   0  0  0  0  0  0  0  0  0  0  0  0
    2.0490    7.4952    0.0000 O   0  0  0  0  0  0  0  0  0  0  0  0
    0.5490   10.0933    0.0000 O   0  0  0  0  0  0  0  0  0  0  0  0
    2.5981    9.5442    0.0000 O   0  0  0  0  0  0  0  0  0  0  0  0
  1  2  1  0
  2  3  1  0
  3  4  2  0
  4  5  1  0
  5  6  2  0
  6  7  1  0
  8  7  1  1
  8  9  1  0
  9 10  1  6
 10 11  2  0
 11 12  1  0
 12 13  1  6
 12 14  1  0
 14 15  1  6
 15 16  1  0
 16 17  2  0
 17 18  1  0
 18 19  1  1
 19 20  1  0
 20 21  1  0
 21 22  1  0
 23 24  1  0
 24 25  2  0
 24 26  2  0
 24 27  1  0
 16  3  1  0
 17  6  1  0
 21  8  1  0
 18  9  1  0
 18 14  1  0
M  END
$$$$
388373
     RDKit          2D

 22 26  0  0  0  0  0  0  0  0999 V2000
    3.7500   -1.2990    0.0000 C   0  0  0  0  0  0  0  0  0  0  0  0
    3.0000    0.0000    0.0000 O   0  0  0  0  0  0  0  0  0  0  0  0
    1.5000    0.0000    0.0000 C   0  0  0  0  0  0  0  0  0  0  0  0
    0.7500   -1.2990    0.0000 C   0  0  0  0  0  0  0  0  0  0  0  0
   -0.7500   -1.2990    0.0000 C   0  0  0  0  0  0  0  0  0  0  0  0
   -1.5000    0.0000    0.0000 C   0  0  0  0  0  0  0  0  0  0  0  0
   -3.0000    0.0000    0.0000 C   0  0  0  0  0  0  0  0  0  0  0  0
   -3.7500    1.2990    0.0000 C   0  0  0  0  0  0  0  0  0  0  0  0
   -3.0000    2.5981    0.0000 C   0  0  0  0  0  0  0  0  0  0  0  0
   -3.7500    3.8971    0.0000 C   0  0  0  0  0  0  0  0  0  0  0  0
   -3.0000    5.1962    0.0000 C   0  0  0  0  0  0  0  0  0  0  0  0
   -1.5000    5.1962    0.0000 C   0  0  0  0  0  0  0  0  0  0  0  0
   -0.7500    6.4952    0.0000 O   0  0  0  0  0  0  0  0  0  0  0  0
   -0.7500    3.8971    0.0000 C   0  0  0  0  0  0  0  0  0  0  0  0
    0.6203    3.2870    0.0000 O   0  0  0  0  0  0  0  0  0  0  0  0
    0.7500    1.2990    0.0000 C   0  0  0  0  0  0  0  0  0  0  0  0
   -0.7500    1.2990    0.0000 C   0  0  0  0  0  0  0  0  0  0  0  0
   -1.5000    2.5981    0.0000 C   0  0  0  0  0  0  0  0  0  0  0  0
   -2.6000    3.2909    0.0000 C   0  0  0  0  0  0  0  0  0  0  0  0
   -3.4000    3.2909    0.0000 C   0  0  0  0  0  0  0  0  0  0  0  0
   -3.8000    2.5981    0.0000 N   0  0  0  0  0  0  0  0  0  0  0  0
   -6.0000    2.5981    0.0000 C   0  0  0  0  0  0  0  0  0  0  0  0
  1  2  1  0
  2  3  1  0
  3  4  2  0
  4  5  1  0
  5  6  2  0
  6  7  1  0
  8  7  1  1
  8  9  1  0
  9 10  1  6
 10 11  1  0
 11 12  1  0
 12 13  2  0
 12 14  1  0
 14 15  1  6
 15 16  1  0
 16 17  2  0
 17 18  1  0
 18 19  1  1
 19 20  1  0
 20 21  1  0
 21 22  1  0
 16  3  1  0
 17  6  1  0
 21  8  1  0
 18  9  1  0
 18 14  1  0
M  END
$$$$
1355858
     RDKit          2D

 32 35  0  0  0  0  0  0  0  0999 V2000
    3.7500   -1.2990    0.0000 C   0  0  0  0  0  0  0  0  0  0  0  0
    3.0000    0.0000    0.0000 O   0  0  0  0  0  0  0  0  0  0  0  0
    1.5000    0.0000    0.0000 C   0  0  0  0  0  0  0  0  0  0  0  0
    0.7500   -1.2990    0.0000 C   0  0  0  0  0  0  0  0  0  0  0  0
   -0.7500   -1.2990    0.0000 C   0  0  0  0  0  0  0  0  0  0  0  0
   -1.5000    0.0000    0.0000 C   0  0  0  0  0  0  0  0  0  0  0  0
   -3.0000    0.0000    0.0000 C   0  0  0  0  0  0  0  0  0  0  0  0
   -3.7500    1.2990    0.0000 C   0  0  0  0  0  0  0  0  0  0  0  0
   -3.0000    2.5981    0.0000 C   0  0  0  0  0  0  0  0  0  0  0  0
   -3.7500    3.8971    0.0000 C   0  0  0  0  0  0  0  0  0  0  0  0
   -3.0000    5.1962    0.0000 C   0  0  0  0  0  0  0  0  0  0  0  0
   -1.5000    5.1962    0.0000 C   0  0  0  0  0  0  0  0  0  0  0  0
   -0.7500    6.4952    0.0000 O   0  0  0  0  0  0  0  0  0  0  0  0
   -0.7500    3.8971    0.0000 C   0  0  0  0  0  0  0  0  0  0  0  0
    0.6203    3.2870    0.0000 O   0  0  0  0  0  0  0  0  0  0  0  0
    0.7500    1.2990    0.0000 C   0  0  0  0  0  0  0  0  0  0  0  0
   -0.7500    1.2990    0.0000 C   0  0  0  0  0  0  0  0  0  0  0  0
   -1.5000    2.5981    0.0000 C   0  0  0  0  0  0  0  0  0  0  0  0
   -2.6000    3.2909    0.0000 C   0  0  0  0  0  0  0  0  0  0  0  0
   -3.4000    3.2909    0.0000 C   0  0  0  0  0  0  0  0  0  0  0  0
   -3.8000    2.5981    0.0000 N   0  0  0  0  0  0  0  0  0  0  0  0
   -6.0000    2.5981    0.0000 C   0  0  0  0  0  0  0  0  0  0  0  0
   -0.0000    7.4952    0.0000 O   0  0  0  0  0  0  0  0  0  0  0  0
    0.0000    8.9952    0.0000 C   0  0  0  0  0  0  0  0  0  0  0  0
    1.2990    9.7452    0.0000 C   0  0  0  0  0  0  0  0  0  0  0  0
    1.2990   11.2452    0.0000 O   0  0  0  0  0  0  0  0  0  0  0  0
    2.5981    8.9952    0.0000 C   0  0  0  0  0  0  0  0  0  0  0  0
    2.5981    7.4952    0.0000 O   0  0  0  0  0  0  0  0  0  0  0  0
    3.8971    9.7452    0.0000 O   0  0  0  0  0  0  0  0  0  0  0  0
   -1.2990    9.7452    0.0000 C   0  0  0  0  0  0  0  0  0  0  0  0
   -1.2990   11.2452    0.0000 O   0  0  0  0  0  0  0  0  0  0  0  0
   -2.5981    8.9952    0.0000 O   0  0  0  0  0  0  0  0  0  0  0  0
  1  2  1  0
  2  3  1  0
  3  4  2  0
  4  5  1  0
  5  6  2  0
  6  7  1  0
  8  7  1  1
  8  9  1  0
  9 10  1  6
 10 11  1  0
 11 12  1  0
 12 13  2  0
 12 14  1  0
 14 15  1  6
 15 16  1  0
 16 17  2  0
 17 18  1  0
 18 19  1  1
 19 20  1  0
 20 21  1  0
 21 22  1  0
 23 24  1  0
 24 25  1  0
 25 26  1  0
 25 27  1  0
 27 28  2  0
 27 29  1  0
 24 30  1  0
 30 31  2  0
 30 32  1  0
 16  3  1  0
 17  6  1  0
 21  8  1  0
 18  9  1  0
 18 14  1  0
M  END
$$$$
454306
     RDKit          2D

 22 26  0  0  0  0  0  0  0  0999 V2000
    3.7500   -1.2990    0.0000 C   0  0  0  0  0  0  0  0  0  0  0  0
    3.0000    0.0000    0.0000 O   0  0  0  0  0  0  0  0  0  0  0  0
    1.5000    0.0000    0.0000 C   0  0  0  0  0  0  0  0  0  0  0  0
    0.7500   -1.2990    0.0000 C   0  0  0  0  0  0  0  0  0  0  0  0
   -0.7500   -1.2990    0.0000 C   0  0  0  0  0  0  0  0  0  0  0  0
   -1.5000    0.0000    0.0000 C   0  0  0  0  0  0  0  0  0  0  0  0
   -3.0000    0.0000    0.0000 C   0  0  0  0  0  0  0  0  0  0  0  0
   -3.7500    1.2990    0.0000 C   0  0  0  0  0  0  0  0  0  0  0  0
   -3.0000    2.5981    0.0000 C   0  0  0  0  0  0  0  0  0  0  0  0
   -3.7500    3.8971    0.0000 C   0  0  0  0  0  0  0  0  0  0  0  0
   -3.0000    5.1962    0.0000 C   0  0  0  0  0  0  0  0  0  0  0  0
   -1.5000    5.1962    0.0000 C   0  0  0  0  0  0  0  0  0  0  0  0
   -0.7500    6.4952    0.0000 O   0  0  0  0  0  0  0  0  0  0  0  0
   -0.7500    3.8971    0.0000 C   0  0  0  0  0  0  0  0  0  0  0  0
    0.6203    3.2870    0.0000 O   0  0  0  0  0  0  0  0  0  0  0  0
    0.7500    1.2990    0.0000 C   0  0  0  0  0  0  0  0  0  0  0  0
   -0.7500    1.2990    0.0000 C   0  0  0  0  0  0  0  0  0  0  0  0
   -1.5000    2.5981    0.0000 C   0  0  0  0  0  0  0  0  0  0  0  0
   -2.6000    3.2909    0.0000 C   0  0  0  0  0  0  0  0  0  0  0  0
   -3.4000    3.2909    0.0000 C   0  0  0  0  0  0  0  0  0  0  0  0
   -3.8000    2.5981    0.0000 N   0  0  0  0  0  0  0  0  0  0  0  0
   -6.0000    2.5981    0.0000 C   0  0  0  0  0  0  0  0  0  0  0  0
  1  2  1  0
  2  3  1  0
  3  4  2  0
  4  5  1  0
  5  6  2  0
  6  7  1  0
  8  7  1  1
  8  9  1  0
  9 10  1  6
 10 11  1  0
 11 12  1  0
 12 13  1  6
 12 14  1  0
 14 15  1  6
 15 16  1  0
 16 17  2  0
 17 18  1  0
 18 19  1  1
 19 20  1  0
 20 21  1  0
 21 22  1  0
 16  3  1  0
 17  6  1  0
 21  8  1  0
 18  9  1  0
 18 14  1  0
M  END
$$$$
1355857
     RDKit          2D

 32 35  0  0  0  0  0  0  0  0999 V2000
    3.7500   -1.2990    0.0000 C   0  0  0  0  0  0  0  0  0  0  0  0
    3.0000    0.0000    0.0000 O   0  0  0  0  0  0  0  0  0  0  0  0
    1.5000    0.0000    0.0000 C   0  0  0  0  0  0  0  0  0  0  0  0
    0.7500   -1.2990    0.0000 C   0  0  0  0  0  0  0  0  0  0  0  0
   -0.7500   -1.2990    0.0000 C   0  0  0  0  0  0  0  0  0  0  0  0
   -1.5000    0.0000    0.0000 C   0  0  0  0  0  0  0  0  0  0  0  0
   -3.0000    0.0000    0.0000 C   0  0  0  0  0  0  0  0  0  0  0  0
   -3.7500    1.2990    0.0000 C   0  0  0  0  0  0  0  0  0  0  0  0
   -3.0000    2.5981    0.0000 C   0  0  0  0  0  0  0  0  0  0  0  0
   -3.7500    3.8971    0.0000 C   0  0  0  0  0  0  0  0  0  0  0  0
   -3.0000    5.1962    0.0000 C   0  0  0  0  0  0  0  0  0  0  0  0
   -1.5000    5.1962    0.0000 C   0  0  0  0  0  0  0  0  0  0  0  0
   -0.7500    6.4952    0.0000 O   0  0  0  0  0  0  0  0  0  0  0  0
   -0.7500    3.8971    0.0000 C   0  0  0  0  0  0  0  0  0  0  0  0
    0.6203    3.2870    0.0000 O   0  0  0  0  0  0  0  0  0  0  0  0
    0.7500    1.2990    0.0000 C   0  0  0  0  0  0  0  0  0  0  0  0
   -0.7500    1.2990    0.0000 C   0  0  0  0  0  0  0  0  0  0  0  0
   -1.5000    2.5981    0.0000 C   0  0  0  0  0  0  0  0  0  0  0  0
   -2.6000    3.2909    0.0000 C   0  0  0  0  0  0  0  0  0  0  0  0
   -3.4000    3.2909    0.0000 C   0  0  0  0  0  0  0  0  0  0  0  0
   -3.8000    2.5981    0.0000 N   0  0  0  0  0  0  0  0  0  0  0  0
   -6.0000    2.5981    0.0000 C   0  0  0  0  0  0  0  0  0  0  0  0
   -0.0000    7.4952    0.0000 O   0  0  0  0  0  0  0  0  0  0  0  0
    0.0000    8.9952    0.0000 C   0  0  0  0  0  0  0  0  0  0  0  0
    1.2990    9.7452    0.0000 C   0  0  0  0  0  0  0  0  0  0  0  0
    1.2990   11.2452    0.0000 O   0  0  0  0  0  0  0  0  0  0  0  0
    2.5981    8.9952    0.0000 C   0  0  0  0  0  0  0  0  0  0  0  0
    2.5981    7.4952    0.0000 O   0  0  0  0  0  0  0  0  0  0  0  0
    3.8971    9.7452    0.0000 O   0  0  0  0  0  0  0  0  0  0  0  0
   -1.2990    9.7452    0.0000 C   0  0  0  0  0  0  0  0  0  0  0  0
   -1.2990   11.2452    0.0000 O   0  0  0  0  0  0  0  0  0  0  0  0
   -2.5981    8.9952    0.0000 O   0  0  0  0  0  0  0  0  0  0  0  0
  1  2  1  0
  2  3  1  0
  3  4  2  0
  4  5  1  0
  5  6  2  0
  6  7  1  0
  8  7  1  1
  8  9  1  0
  9 10  1  6
 10 11  1  0
 11 12  1  0
 12 13  1  6
 12 14  1  0
 14 15  1  6
 15 16  1  0
 16 17  2  0
 17 18  1  0
 18 19  1  1
 19 20  1  0
 20 21  1  0
 21 22  1  0
 23 24  1  0
 24 25  1  0
 25 26  1  0
 25 27  1  0
 27 28  2  0
 27 29  1  0
 24 30  1  0
 30 31  2  0
 30 32  1  0
 16  3  1  0
 17  6  1  0
 21  8  1  0
 18  9  1  0
 18 14  1  0
M  END
$$$$
27624
     RDKit          2D

 23 27  0  0  0  0  0  0  0  0999 V2000
    3.7500   -1.2990    0.0000 C   0  0  0  0  0  0  0  0  0  0  0  0
    3.0000    0.0000    0.0000 O   0  0  0  0  0  0  0  0  0  0  0  0
    1.5000    0.0000    0.0000 C   0  0  0  0  0  0  0  0  0  0  0  0
    0.7500   -1.2990    0.0000 C   0  0  0  0  0  0  0  0  0  0  0  0
   -0.7500   -1.2990    0.0000 C   0  0  0  0  0  0  0  0  0  0  0  0
   -1.5000    0.0000    0.0000 C   0  0  0  0  0  0  0  0  0  0  0  0
   -3.0000    0.0000    0.0000 C   0  0  0  0  0  0  0  0  0  0  0  0
   -3.7500    1.2990    0.0000 C   0  0  0  0  0  0  0  0  0  0  0  0
   -4.5000    2.5981    0.0000 N   0  0  0  0  0  0  0  0  0  0  0  0
   -6.0000    2.5981    0.0000 C   0  0  0  0  0  0  0  0  0  0  0  0
   -3.7500    3.8971    0.0000 C   0  0  0  0  0  0  0  0  0  0  0  0
   -2.2500    3.8971    0.0000 C   0  0  0  0  0  0  0  0  0  0  0  0
   -1.5000    2.5981    0.0000 C   0  0  0  0  0  0  0  0  0  0  0  0
   -0.7500    3.8971    0.0000 C   0  0  0  0  0  0  0  0  0  0  0  0
    0.6203    3.2870    0.0000 O   0  0  0  0  0  0  0  0  0  0  0  0
    0.7500    1.2990    0.0000 C   0  0  0  0  0  0  0  0  0  0  0  0
   -0.7500    1.2990    0.0000 C   0  0  0  0  0  0  0  0  0  0  0  0
   -1.0404    3.1010    0.0000 C   0  0  0  0  0  0  0  0  0  0  0  0
   -0.7500    6.4952    0.0000 O   0  0  0  0  0  0  0  0  0  0  0  0
   -1.9500    3.3775    0.0000 C   0  0  0  0  0  0  0  0  0  0  0  0
   -2.1654    2.4515    0.0000 C   0  0  0  0  0  0  0  0  0  0  0  0
   -3.0000    2.5981    0.0000 C   0  0  0  0  0  0  0  0  0  0  0  0
   -4.4554    2.9610    0.0000 O   0  0  0  0  0  0  0  0  0  0  0  0
  1  2  1  0
  2  3  1  0
  3  4  2  0
  4  5  1  0
  5  6  2  0
  6  7  1  0
  8  7  1  1
  8  9  1  0
  9 10  1  0
  9 11  1  0
 11 12  1  0
 13 12  1  1
 13 14  1  0
 14 15  1  1
 15 16  1  0
 16 17  2  0
 14 18  1  0
 18 19  2  0
 18 20  1  0
 20 21  1  0
 21 22  1  0
 22 23  1  6
 16  3  1  0
 17  6  1  0
 22  8  1  0
 17 13  1  0
 22 13  1  0
M  END
$$$$
674562
     RDKit          2D

 35 39  0  0  0  0  0  0  0  0999 V2000
    3.7500   -1.2990    0.0000 C   0  0  0  0  0  0  0  0  0  0  0  0
    3.0000    0.0000    0.0000 O   0  0  0  0  0  0  0  0  0  0  0  0
    1.5000    0.0000    0.0000 C   0  0  0  0  0  0  0  0  0  0  0  0
    0.7500   -1.2990    0.0000 C   0  0  0  0  0  0  0  0  0  0  0  0
   -0.7500   -1.2990    0.0000 C   0  0  0  0  0  0  0  0  0  0  0  0
   -1.5000    0.0000    0.0000 C   0  0  0  0  0  0  0  0  0  0  0  0
   -3.0000    0.0000    0.0000 C   0  0  0  0  0  0  0  0  0  0  0  0
   -3.7500    1.2990    0.0000 C   0  0  0  0  0  0  0  0  0  0  0  0
   -4.5000    2.5981    0.0000 N   0  0  0  0  0  0  0  0  0  0  0  0
   -6.0000    2.5981    0.0000 C   0  0  0  0  0  0  0  0  0  0  0  0
   -3.7500    3.8971    0.0000 C   0  0  0  0  0  0  0  0  0  0  0  0
   -2.2500    3.8971    0.0000 C   0  0  0  0  0  0  0  0  0  0  0  0
   -1.5000    2.5981    0.0000 C   0  0  0  0  0  0  0  0  0  0  0  0
   -0.7500    3.8971    0.0000 C   0  0  0  0  0  0  0  0  0  0  0  0
    0.6203    3.2870    0.0000 O   0  0  0  0  0  0  0  0  0  0  0  0
    0.7500    1.2990    0.0000 C   0  0  0  0  0  0  0  0  0  0  0  0
   -0.7500    1.2990    0.0000 C   0  0  0  0  0  0  0  0  0  0  0  0
   -1.0404    3.1010    0.0000 C   0  0  0  0  0  0  0  0  0  0  0  0
   -0.7500    6.4952    0.0000 O   0  0  0  0  0  0  0  0  0  0  0  0
   -1.9500    3.3775    0.0000 C   0  0  0  0  0  0  0  0  0  0  0  0
   -2.1654    2.4515    0.0000 C   0  0  0  0  0  0  0  0  0  0  0  0
   -3.0000    2.5981    0.0000 C   0  0  0  0  0  0  0  0  0  0  0  0
   -4.4554    2.9610    0.0000 O   0  0  0  0  0  0  0  0  0  0  0  0
    3.7500    7.4952    0.0000 O   0  0  0  0  0  0  0  0  0  0  0  0
    3.0000    8.7942    0.0000 C   0  0  0  0  0  0  0  0  0  0  0  0
    3.7500   10.0933    0.0000 O   0  0  0  0  0  0  0  0  0  0  0  0
    1.5000    8.7942    0.0000 C   0  0  0  0  0  0  0  0  0  0  0  0
    0.7500    7.4952    0.0000 C   0  0  0  0  0  0  0  0  0  0  0  0
   -0.7500    7.4952    0.0000 C   0  0  0  0  0  0  0  0  0  0  0  0
   -1.5000    8.7942    0.0000 C   0  0  0  0  0  0  0  0  0  0  0  0
   -0.7500   10.0933    0.0000 C   0  0  0  0  0  0  0  0  0  0  0  0
    0.7500   10.0933    0.0000 C   0  0  0  0  0  0  0  0  0  0  0  0
   -3.0000    8.7942    0.0000 C   0  0  0  0  0  0  0  0  0  0  0  0
   -3.7500    7.4952    0.0000 O   0  0  0  0  0  0  0  0  0  0  0  0
   -3.7500   10.0933    0.0000 O   0  0  0  0  0  0  0  0  0  0  0  0
  1  2  1  0
  2  3  1  0
  3  4  2  0
  4  5  1  0
  5  6  2  0
  6  7  1  0
  8  7  1  1
  8  9  1  0
  9 10  1  0
  9 11  1  0
 11 12  1  0
 13 12  1  1
 13 14  1  0
 14 15  1  1
 15 16  1  0
 16 17  2  0
 14 18  1  0
 18 19  2  0
 18 20  1  0
 20 21  1  0
 21 22  1  0
 22 23  1  6
 24 25  1  0
 25 26  2  0
 25 27  1  0
 27 28  2  0
 28 29  1  0
 29 30  2  0
 30 31  1  0
 31 32  2  0
 30 33  1  0
 33 34  2  0
 33 35  1  0
 16  3  1  0
 17  6  1  0
 22  8  1  0
 17 13  1  0
 22 13  1  0
 32 27  1  0
M  END
$$$$
77456
     RDKit          2D

 20 23  0  0  0  0  0  0  0  0999 V2000
   -6.0000   -2.5981    0.0000 C   0  0  0  0  0  0  0  0  0  0  0  0
   -5.2500   -3.8971    0.0000 O   0  0  0  0  0  0  0  0  0  0  0  0
   -3.7500   -3.8971    0.0000 C   0  0  0  0  0  0  0  0  0  0  0  0
   -3.0000   -5.1962    0.0000 C   0  0  0  0  0  0  0  0  0  0  0  0
   -1.5000   -5.1962    0.0000 C   0  0  0  0  0  0  0  0  0  0  0  0
   -0.7500   -3.8971    0.0000 C   0  0  0  0  0  0  0  0  0  0  0  0
    0.7500   -3.8971    0.0000 C   0  0  0  0  0  0  0  0  0  0  0  0
    1.5000   -2.5981    0.0000 C   0  0  0  0  0  0  0  0  0  0  0  0
    0.7500   -1.2990    0.0000 C   0  0  0  0  0  0  0  0  0  0  0  0
    1.5000    0.0000    0.0000 C   0  0  0  0  0  0  0  0  0  0  0  0
    0.7500    1.2990    0.0000 C   0  0  0  0  0  0  0  0  0  0  0  0
   -0.7500    1.2990    0.0000 C   0  0  0  0  0  0  0  0  0  0  0  0
   -1.5000    0.0000    0.0000 C   0  0  0  0  0  0  0  0  0  0  0  0
   -0.7500   -1.2990    0.0000 C   0  0  0  0  0  0  0  0  0  0  0  0
    0.3500   -0.6062    0.0000 C   0  0  0  0  0  0  0  0  0  0  0  0
    1.1500   -0.6062    0.0000 C   0  0  0  0  0  0  0  0  0  0  0  0
    1.5500   -1.2990    0.0000 N   0  0  0  0  0  0  0  0  0  0  0  0
    3.7500   -1.2990    0.0000 C   0  0  0  0  0  0  0  0  0  0  0  0
   -1.5000   -2.5981    0.0000 C   0  0  0  0  0  0  0  0  0  0  0  0
   -3.0000   -2.5981    0.0000 C   0  0  0  0  0  0  0  0  0  0  0  0
  1  2  1  0
  2  3  1  0
  3  4  2  0
  4  5  1  0
  5  6  2  0
  6  7  1  0
  8  7  1  1
  8  9  1  0
  9 10  1  6
 10 11  1  0
 11 12  1  0
 12 13  1  0
 14 13  1  6
 14 15  1  0
 15 16  1  0
 16 17  1  0
 17 18  1  0
 14 19  1  0
 19 20  2  0
 20  3  1  0
 19  6  1  0
 17  8  1  0
 14  9  1  0
M  END
$$$$
1356484
     RDKit          2D

 54 60  0  0  0  0  0  0  0  0999 V2000
  -14.3976    7.1696    0.0000 C   0  0  0  0  0  0  0  0  0  0  0  0
  -13.8846    5.7600    0.0000 O   0  0  0  0  0  0  0  0  0  0  0  0
  -12.4074    5.4996    0.0000 C   0  0  0  0  0  0  0  0  0  0  0  0
  -11.4432    6.6486    0.0000 C   0  0  0  0  0  0  0  0  0  0  0  0
   -9.9660    6.3882    0.0000 C   0  0  0  0  0  0  0  0  0  0  0  0
   -9.4530    4.9786    0.0000 C   0  0  0  0  0  0  0  0  0  0  0  0
   -7.9758    4.7181    0.0000 N   0  0  0  0  0  0  0  0  0  0  0  0
   -7.4627    3.3086    0.0000 C   0  0  0  0  0  0  0  0  0  0  0  0
   -6.1637    4.0586    0.0000 C   0  0  0  0  0  0  0  0  0  0  0  0
   -4.6865    4.3191    0.0000 C   0  0  0  0  0  0  0  0  0  0  0  0
   -3.2093    4.0586    0.0000 C   0  0  0  0  0  0  0  0  0  0  0  0
   -1.9102    3.3086    0.0000 C   0  0  0  0  0  0  0  0  0  0  0  0
   -0.9460    2.1595    0.0000 C   0  0  0  0  0  0  0  0  0  0  0  0
   -0.4330    0.7500    0.0000 C   0  0  0  0  0  0  0  0  0  0  0  0
    0.8660    0.0000    0.0000 C   0  0  0  0  0  0  0  0  0  0  0  0
   -0.4330   -0.7500    0.0000 C   0  0  0  0  0  0  0  0  0  0  0  0
   -0.9460   -2.1595    0.0000 O   0  0  0  0  0  0  0  0  0  0  0  0
   -1.9102   -3.3086    0.0000 C   0  0  0  0  0  0  0  0  0  0  0  0
   -0.9460   -4.4577    0.0000 O   0  0  0  0  0  0  0  0  0  0  0  0
   -3.2093   -4.0586    0.0000 N   0  0  0  0  0  0  0  0  0  0  0  0
   -4.6865   -4.3191    0.0000 C   0  0  0  0  0  0  0  0  0  0  0  0
   -6.1637   -4.0586    0.0000 C   0  0  0  0  0  0  0  0  0  0  0  0
   -6.8447   -5.3951    0.0000 O   0  0  0  0  0  0  0  0  0  0  0  0
   -7.4627   -3.3086    0.0000 N   0  0  0  0  0  0  0  0  0  0  0  0
   -8.4269   -2.1595    0.0000 C   0  0  0  0  0  0  0  0  0  0  0  0
   -8.9399   -0.7500    0.0000 C   0  0  0  0  0  0  0  0  0  0  0  0
   -9.9436   -1.8647    0.0000 C   0  0  0  0  0  0  0  0  0  0  0  0
   -9.1936   -3.1638    0.0000 C   0  0  0  0  0  0  0  0  0  0  0  0
   -9.8037   -4.5341    0.0000 C   0  0  0  0  0  0  0  0  0  0  0  0
   -8.9221   -5.7476    0.0000 O   0  0  0  0  0  0  0  0  0  0  0  0
  -11.2955   -4.6909    0.0000 N   0  0  0  0  0  0  0  0  0  0  0  0
  -11.9056   -6.0612    0.0000 C   0  0  0  0  0  0  0  0  0  0  0  0
  -12.0103   -7.5575    0.0000 C   0  0  0  0  0  0  0  0  0  0  0  0
  -10.6621   -6.9000    0.0000 C   0  0  0  0  0  0  0  0  0  0  0  0
   -9.1657   -7.0046    0.0000 C   0  0  0  0  0  0  0  0  0  0  0  0
   -8.5082   -8.3528    0.0000 C   0  0  0  0  0  0  0  0  0  0  0  0
  -13.3611   -5.6983    0.0000 C   0  0  0  0  0  0  0  0  0  0  0  0
  -13.7745   -4.2564    0.0000 O   0  0  0  0  0  0  0  0  0  0  0  0
  -14.4031   -6.7773    0.0000 N   0  0  0  0  0  0  0  0  0  0  0  0
  -15.8585   -6.4144    0.0000 S   0  0  0  0  0  0  0  0  0  0  0  0
  -15.4956   -4.9590    0.0000 O   0  0  0  0  0  0  0  0  0  0  0  0
  -16.2214   -7.8699    0.0000 O   0  0  0  0  0  0  0  0  0  0  0  0
  -17.3139   -6.0515    0.0000 C   0  0  0  0  0  0  0  0  0  0  0  0
  -18.3930   -5.0096    0.0000 C   0  0  0  0  0  0  0  0  0  0  0  0
  -18.7558   -6.4650    0.0000 C   0  0  0  0  0  0  0  0  0  0  0  0
   -8.9399    0.7500    0.0000 O   0  0  0  0  0  0  0  0  0  0  0  0
   -8.4269    2.1595    0.0000 C   0  0  0  0  0  0  0  0  0  0  0  0
   -9.9041    2.4200    0.0000 N   0  0  0  0  0  0  0  0  0  0  0  0
  -10.4171    3.8296    0.0000 C   0  0  0  0  0  0  0  0  0  0  0  0
  -11.8944    4.0900    0.0000 C   0  0  0  0  0  0  0  0  0  0  0  0
   -4.6865   -5.8191    0.0000 C   0  0  0  0  0  0  0  0  0  0  0  0
   -6.1753   -6.0019    0.0000 C   0  0  0  0  0  0  0  0  0  0  0  0
   -3.1865   -5.8191    0.0000 C   0  0  0  0  0  0  0  0  0  0  0  0
   -4.6865   -7.3191    0.0000 C   0  0  0  0  0  0  0  0  0  0  0  0
  1  2  1  0
  2  3  1  0
  3  4  2  0
  4  5  1  0
  5  6  2  0
  6  7  1  0
  7  8  2  0
  8  9  1  0
  9 10  1  0
 10 11  1  0
 11 12  1  0
 12 13  1  0
 14 13  1  6
 14 15  1  0
 16 15  1  1
 16 17  1  0
 17 18  1  0
 18 19  2  0
 18 20  1  0
 20 21  1  0
 21 22  1  0
 22 23  2  0
 22 24  1  0
 24 25  1  0
 25 26  1  0
 26 27  1  1
 27 28  1  0
 28 29  1  6
 29 30  2  0
 29 31  1  0
 32 31  1  1
 32 33  1  0
 33 34  1  0
 34 35  1  6
 35 36  2  0
 32 37  1  0
 37 38  2  0
 37 39  1  0
 39 40  1  0
 40 41  2  0
 40 42  2  0
 40 43  1  0
 43 44  1  0
 44 45  1  0
 26 46  1  0
 46 47  1  0
 47 48  2  0
 48 49  1  0
 49 50  2  0
 21 51  1  1
 51 52  1  0
 51 53  1  0
 51 54  1  0
 50  3  1  0
 49  6  1  0
 47  8  1  0
 16 14  1  0
 28 24  1  0
 34 32  1  0
 45 43  1  0
M  END
$$$$
255947
     RDKit          2D

 24 27  0  0  0  0  0  0  0  0999 V2000
    3.7500   -1.2990    0.0000 C   0  0  0  0  0  0  0  0  0  0  0  0
    3.0000    0.0000    0.0000 O   0  0  0  0  0  0  0  0  0  0  0  0
    1.5000    0.0000    0.0000 C   0  0  0  0  0  0  0  0  0  0  0  0
    0.7500   -1.2990    0.0000 C   0  0  0  0  0  0  0  0  0  0  0  0
   -0.7500   -1.2990    0.0000 C   0  0  0  0  0  0  0  0  0  0  0  0
   -1.5000    0.0000    0.0000 C   0  0  0  0  0  0  0  0  0  0  0  0
   -3.0000    0.0000    0.0000 N   0  0  0  0  0  0  0  0  0  0  0  0
   -3.7500    1.2990    0.0000 C   0  0  0  0  0  0  0  0  0  0  0  0
   -3.0000    2.5981    0.0000 C   0  0  0  0  0  0  0  0  0  0  0  0
   -1.5000    2.5981    0.0000 C   0  0  0  0  0  0  0  0  0  0  0  0
   -0.7500    3.8971    0.0000 C   0  0  0  0  0  0  0  0  0  0  0  0
    0.7500    3.8971    0.0000 O   0  0  0  0  0  0  0  0  0  0  0  0
   -1.5000    5.1962    0.0000 C   0  0  0  0  0  0  0  0  0  0  0  0
   -3.0000    5.1962    0.0000 C   0  0  0  0  0  0  0  0  0  0  0  0
   -3.7500    6.4952    0.0000 C   0  0  0  0  0  0  0  0  0  0  0  0
   -3.0000    7.7942    0.0000 C   0  0  0  0  0  0  0  0  0  0  0  0
   -1.5000    7.7942    0.0000 C   0  0  0  0  0  0  0  0  0  0  0  0
   -0.7500    6.4952    0.0000 N   0  0  0  0  0  0  0  0  0  0  0  0
   -1.5718    6.5456    0.0000 C   0  0  0  0  0  0  0  0  0  0  0  0
   -2.9282    6.5456    0.0000 C   0  0  0  0  0  0  0  0  0  0  0  0
   -3.7500    9.0933    0.0000 C   0  0  0  0  0  0  0  0  0  0  0  0
   -5.2500    9.0933    0.0000 C   0  0  0  0  0  0  0  0  0  0  0  0
   -0.7500    1.2990    0.0000 C   0  0  0  0  0  0  0  0  0  0  0  0
    0.7500    1.2990    0.0000 C   0  0  0  0  0  0  0  0  0  0  0  0
  1  2  1  0
  2  3  1  0
  3  4  2  0
  4  5  1  0
  5  6  2  0
  6  7  1  0
  7  8  2  0
  8  9  1  0
  9 10  2  0
 10 11  1  0
 11 12  1  6
 11 13  1  0
 13 14  1  6
 15 14  1  6
 15 16  1  0
 16 17  1  0
 17 18  1  0
 18 19  1  0
 19 20  1  0
 20 21  1  1
 21 22  2  0
 10 23  1  0
 23 24  2  0
 24  3  1  0
 23  6  1  0
 18 13  1  0
 20 15  1  0
M  END
$$$$
255477
     RDKit          2D

 24 27  0  0  0  0  0  0  0  0999 V2000
    3.7500   -1.2990    0.0000 C   0  0  0  0  0  0  0  0  0  0  0  0
    3.0000    0.0000    0.0000 O   0  0  0  0  0  0  0  0  0  0  0  0
    1.5000    0.0000    0.0000 C   0  0  0  0  0  0  0  0  0  0  0  0
    0.7500   -1.2990    0.0000 C   0  0  0  0  0  0  0  0  0  0  0  0
   -0.7500   -1.2990    0.0000 C   0  0  0  0  0  0  0  0  0  0  0  0
   -1.5000    0.0000    0.0000 C   0  0  0  0  0  0  0  0  0  0  0  0
   -3.0000    0.0000    0.0000 N   0  0  0  0  0  0  0  0  0  0  0  0
   -3.7500    1.2990    0.0000 C   0  0  0  0  0  0  0  0  0  0  0  0
   -3.0000    2.5981    0.0000 C   0  0  0  0  0  0  0  0  0  0  0  0
   -1.5000    2.5981    0.0000 C   0  0  0  0  0  0  0  0  0  0  0  0
   -0.7500    3.8971    0.0000 C   0  0  0  0  0  0  0  0  0  0  0  0
    0.7500    3.8971    0.0000 O   0  0  0  0  0  0  0  0  0  0  0  0
   -1.5000    5.1962    0.0000 C   0  0  0  0  0  0  0  0  0  0  0  0
   -3.0000    5.1962    0.0000 C   0  0  0  0  0  0  0  0  0  0  0  0
   -3.7500    6.4952    0.0000 C   0  0  0  0  0  0  0  0  0  0  0  0
   -3.0000    7.7942    0.0000 C   0  0  0  0  0  0  0  0  0  0  0  0
   -1.5000    7.7942    0.0000 C   0  0  0  0  0  0  0  0  0  0  0  0
   -0.7500    6.4952    0.0000 N   0  0  0  0  0  0  0  0  0  0  0  0
   -1.5718    6.5456    0.0000 C   0  0  0  0  0  0  0  0  0  0  0  0
   -2.9282    6.5456    0.0000 C   0  0  0  0  0  0  0  0  0  0  0  0
   -3.7500    9.0933    0.0000 C   0  0  0  0  0  0  0  0  0  0  0  0
   -5.2500    9.0933    0.0000 C   0  0  0  0  0  0  0  0  0  0  0  0
   -0.7500    1.2990    0.0000 C   0  0  0  0  0  0  0  0  0  0  0  0
    0.7500    1.2990    0.0000 C   0  0  0  0  0  0  0  0  0  0  0  0
  1  2  1  0
  2  3  1  0
  3  4  2  0
  4  5  1  0
  5  6  2  0
  6  7  1  0
  7  8  2  0
  8  9  1  0
  9 10  2  0
 10 11  1  0
 11 12  1  1
 11 13  1  0
 13 14  1  1
 15 14  1  6
 15 16  1  0
 16 17  1  0
 17 18  1  0
 18 19  1  0
 19 20  1  0
 20 21  1  1
 21 22  2  0
 10 23  1  0
 23 24  2  0
 24  3  1  0
 23  6  1  0
 18 13  1  0
 20 15  1  0
M  END
$$$$
674388
     RDKit          2D

 37 39  0  0  0  0  0  0  0  0999 V2000
    3.7500   -1.2990    0.0000 C   0  0  0  0  0  0  0  0  0  0  0  0
    3.0000    0.0000    0.0000 O   0  0  0  0  0  0  0  0  0  0  0  0
    1.5000    0.0000    0.0000 C   0  0  0  0  0  0  0  0  0  0  0  0
    0.7500   -1.2990    0.0000 C   0  0  0  0  0  0  0  0  0  0  0  0
   -0.7500   -1.2990    0.0000 C   0  0  0  0  0  0  0  0  0  0  0  0
   -1.5000    0.0000    0.0000 C   0  0  0  0  0  0  0  0  0  0  0  0
   -3.0000    0.0000    0.0000 N   0  0  0  0  0  0  0  0  0  0  0  0
   -3.7500    1.2990    0.0000 C   0  0  0  0  0  0  0  0  0  0  0  0
   -3.0000    2.5981    0.0000 C   0  0  0  0  0  0  0  0  0  0  0  0
   -1.5000    2.5981    0.0000 C   0  0  0  0  0  0  0  0  0  0  0  0
   -0.7500    3.8971    0.0000 C   0  0  0  0  0  0  0  0  0  0  0  0
    0.7500    3.8971    0.0000 O   0  0  0  0  0  0  0  0  0  0  0  0
   -1.5000    5.1962    0.0000 C   0  0  0  0  0  0  0  0  0  0  0  0
   -3.0000    5.1962    0.0000 C   0  0  0  0  0  0  0  0  0  0  0  0
   -3.7500    6.4952    0.0000 C   0  0  0  0  0  0  0  0  0  0  0  0
   -3.0000    7.7942    0.0000 C   0  0  0  0  0  0  0  0  0  0  0  0
   -1.5000    7.7942    0.0000 C   0  0  0  0  0  0  0  0  0  0  0  0
   -0.7500    6.4952    0.0000 N   0  0  0  0  0  0  0  0  0  0  0  0
   -1.5718    6.5456    0.0000 C   0  0  0  0  0  0  0  0  0  0  0  0
   -2.9282    6.5456    0.0000 C   0  0  0  0  0  0  0  0  0  0  0  0
   -3.7500    9.0933    0.0000 C   0  0  0  0  0  0  0  0  0  0  0  0
   -5.2500    9.0933    0.0000 C   0  0  0  0  0  0  0  0  0  0  0  0
   -0.7500    1.2990    0.0000 C   0  0  0  0  0  0  0  0  0  0  0  0
    0.7500    1.2990    0.0000 C   0  0  0  0  0  0  0  0  0  0  0  0
    4.7500    0.7500    0.0000 O   0  0  0  0  0  0  0  0  0  0  0  0
    6.0490    0.0000    0.0000 C   0  0  0  0  0  0  0  0  0  0  0  0
    7.3481    0.7500    0.0000 C   0  0  0  0  0  0  0  0  0  0  0  0
    7.3481    2.2500    0.0000 O   0  0  0  0  0  0  0  0  0  0  0  0
    8.6471   -0.0000    0.0000 C   0  0  0  0  0  0  0  0  0  0  0  0
    8.6471   -1.5000    0.0000 O   0  0  0  0  0  0  0  0  0  0  0  0
    9.9462    0.7500    0.0000 C   0  0  0  0  0  0  0  0  0  0  0  0
    9.9462    2.2500    0.0000 O   0  0  0  0  0  0  0  0  0  0  0  0
   11.2452   -0.0000    0.0000 C   0  0  0  0  0  0  0  0  0  0  0  0
   11.2452   -1.5000    0.0000 O   0  0  0  0  0  0  0  0  0  0  0  0
   12.5442    0.7500    0.0000 C   0  0  0  0  0  0  0  0  0  0  0  0
   12.5442    2.2500    0.0000 O   0  0  0  0  0  0  0  0  0  0  0  0
   13.8433   -0.0000    0.0000 O   0  0  0  0  0  0  0  0  0  0  0  0
  1  2  1  0
  2  3  1  0
  3  4  2  0
  4  5  1  0
  5  6  2  0
  6  7  1  0
  7  8  2  0
  8  9  1  0
  9 10  2  0
 10 11  1  0
 11 12  1  1
 11 13  1  0
 13 14  1  1
 15 14  1  6
 15 16  1  0
 16 17  1  0
 17 18  1  0
 18 19  1  0
 19 20  1  0
 20 21  1  1
 21 22  2  0
 10 23  1  0
 23 24  2  0
 25 26  1  0
 26 27  1  0
 27 28  1  1
 27 29  1  0
 29 30  1  6
 29 31  1  0
 31 32  1  6
 31 33  1  0
 33 34  1  6
 33 35  1  0
 35 36  2  0
 35 37  1  0
 24  3  1  0
 23  6  1  0
 18 13  1  0
 20 15  1  0
M  END
$$$$
675102
     RDKit          2D

 23 26  0  0  0  0  0  0  0  0999 V2000
    3.7500   -1.2990    0.0000 C   0  0  0  0  0  0  0  0  0  0  0  0
    3.0000    0.0000    0.0000 O   0  0  0  0  0  0  0  0  0  0  0  0
    1.5000    0.0000    0.0000 C   0  0  0  0  0  0  0  0  0  0  0  0
    0.7500   -1.2990    0.0000 C   0  0  0  0  0  0  0  0  0  0  0  0
   -0.7500   -1.2990    0.0000 C   0  0  0  0  0  0  0  0  0  0  0  0
   -1.5000    0.0000    0.0000 C   0  0  0  0  0  0  0  0  0  0  0  0
   -3.0000    0.0000    0.0000 C   0  0  0  0  0  0  0  0  0  0  0  0
   -3.7500   -1.2990    0.0000 C   0  0  0  0  0  0  0  0  0  0  0  0
   -5.2500   -1.2990    0.0000 C   0  0  0  0  0  0  0  0  0  0  0  0
   -6.0000   -0.0000    0.0000 C   0  0  0  0  0  0  0  0  0  0  0  0
   -6.7272   -1.3119    0.0000 C   0  0  0  0  0  0  0  0  0  0  0  0
   -5.2500    1.2990    0.0000 C   0  0  0  0  0  0  0  0  0  0  0  0
   -6.2537    2.4138    0.0000 C   0  0  0  0  0  0  0  0  0  0  0  0
   -7.6240    1.8037    0.0000 C   0  0  0  0  0  0  0  0  0  0  0  0
   -7.4672    0.3119    0.0000 C   0  0  0  0  0  0  0  0  0  0  0  0
   -7.8047   -1.1497    0.0000 O   0  0  0  0  0  0  0  0  0  0  0  0
   -8.9672    0.3119    0.0000 C   0  0  0  0  0  0  0  0  0  0  0  0
  -10.4672    0.3119    0.0000 C   0  0  0  0  0  0  0  0  0  0  0  0
   -3.7500    1.2990    0.0000 C   0  0  0  0  0  0  0  0  0  0  0  0
   -3.0000    2.5981    0.0000 C   0  0  0  0  0  0  0  0  0  0  0  0
   -1.5000    2.5981    0.0000 C   0  0  0  0  0  0  0  0  0  0  0  0
   -0.7500    1.2990    0.0000 C   0  0  0  0  0  0  0  0  0  0  0  0
    0.7500    1.2990    0.0000 C   0  0  0  0  0  0  0  0  0  0  0  0
  1  2  1  0
  2  3  1  0
  3  4  2  0
  4  5  1  0
  5  6  2  0
  6  7  1  0
  7  8  1  1
  8  9  1  0
  9 10  1  0
 10 11  1  1
 10 12  1  0
 12 13  1  1
 13 14  1  0
 14 15  1  0
 15 16  1  1
 15 17  1  0
 17 18  3  0
 12 19  1  0
 19 20  1  6
 20 21  1  0
 21 22  1  0
 22 23  2  0
 23  3  1  0
 22  6  1  0
 19  7  1  0
 15 10  1  0
M  END
$$$$
419601
     RDKit          2D

 24 26  0  0  0  0  0  0  0  0999 V2000
    3.7500   -1.2990    0.0000 C   0  0  0  0  0  0  0  0  0  0  0  0
    3.0000    0.0000    0.0000 O   0  0  0  0  0  0  0  0  0  0  0  0
    1.5000    0.0000    0.0000 C   0  0  0  0  0  0  0  0  0  0  0  0
    0.7500   -1.2990    0.0000 C   0  0  0  0  0  0  0  0  0  0  0  0
   -0.7500   -1.2990    0.0000 C   0  0  0  0  0  0  0  0  0  0  0  0
   -1.5000    0.0000    0.0000 C   0  0  0  0  0  0  0  0  0  0  0  0
   -2.9672    0.3119    0.0000 N   0  0  0  0  0  0  0  0  0  0  0  0
   -3.1240    1.8037    0.0000 C   0  0  0  0  0  0  0  0  0  0  0  0
   -1.7537    2.4138    0.0000 N   0  0  0  0  0  0  0  0  0  0  0  0
   -0.7500    1.2990    0.0000 C   0  0  0  0  0  0  0  0  0  0  0  0
    0.7500    1.2990    0.0000 C   0  0  0  0  0  0  0  0  0  0  0  0
   -4.4231    2.5537    0.0000 S   0  0  0  0  0  3  0  0  0  0  0  0
   -5.7221    1.8037    0.0000 O   0  0  0  0  0  1  0  0  0  0  0  0
   -4.4231    4.0537    0.0000 C   0  0  0  0  0  0  0  0  0  0  0  0
   -5.7221    4.8037    0.0000 C   0  0  0  0  0  0  0  0  0  0  0  0
   -5.7221    6.3037    0.0000 N   0  0  0  0  0  0  0  0  0  0  0  0
   -7.0211    7.0537    0.0000 C   0  0  0  0  0  0  0  0  0  0  0  0
   -8.3202    6.3037    0.0000 C   0  0  0  0  0  0  0  0  0  0  0  0
   -9.6192    7.0537    0.0000 C   0  0  0  0  0  0  0  0  0  0  0  0
   -8.3202    4.8037    0.0000 C   0  0  0  0  0  0  0  0  0  0  0  0
   -9.6192    4.0537    0.0000 O   0  0  0  0  0  0  0  0  0  0  0  0
   -9.6192    2.5537    0.0000 C   0  0  0  0  0  0  0  0  0  0  0  0
   -7.0211    4.0537    0.0000 C   0  0  0  0  0  0  0  0  0  0  0  0
   -7.0211    2.5537    0.0000 C   0  0  0  0  0  0  0  0  0  0  0  0
  1  2  1  0
  2  3  1  0
  3  4  2  0
  4  5  1  0
  5  6  2  0
  6  7  1  0
  7  8  1  0
  8  9  2  0
  9 10  1  0
 10 11  2  0
  8 12  1  0
 12 13  1  0
 12 14  1  0
 14 15  1  0
 15 16  2  0
 16 17  1  0
 17 18  2  0
 18 19  1  0
 18 20  1  0
 20 21  1  0
 21 22  1  0
 20 23  2  0
 23 24  1  0
 11  3  1  0
 10  6  1  0
 23 15  1  0
M  CHG  2  12   1  13  -1
M  END
$$$$
675271
     RDKit          2D

 24 26  0  0  0  0  0  0  0  0999 V2000
    3.7500   -1.2990    0.0000 C   0  0  0  0  0  0  0  0  0  0  0  0
    3.0000    0.0000    0.0000 O   0  0  0  0  0  0  0  0  0  0  0  0
    1.5000    0.0000    0.0000 C   0  0  0  0  0  0  0  0  0  0  0  0
    0.7500   -1.2990    0.0000 C   0  0  0  0  0  0  0  0  0  0  0  0
   -0.7500   -1.2990    0.0000 C   0  0  0  0  0  0  0  0  0  0  0  0
   -1.5000    0.0000    0.0000 C   0  0  0  0  0  0  0  0  0  0  0  0
   -2.9672    0.3119    0.0000 N   0  0  0  0  0  0  0  0  0  0  0  0
   -3.1240    1.8037    0.0000 C   0  0  0  0  0  0  0  0  0  0  0  0
   -1.7537    2.4138    0.0000 N   0  0  0  0  0  0  0  0  0  0  0  0
   -0.7500    1.2990    0.0000 C   0  0  0  0  0  0  0  0  0  0  0  0
    0.7500    1.2990    0.0000 C   0  0  0  0  0  0  0  0  0  0  0  0
   -4.4231    2.5537    0.0000 S   0  0  0  0  0  3  0  0  0  0  0  0
   -5.7221    1.8037    0.0000 O   0  0  0  0  0  1  0  0  0  0  0  0
   -4.4231    4.0537    0.0000 C   0  0  0  0  0  0  0  0  0  0  0  0
   -5.7221    4.8037    0.0000 C   0  0  0  0  0  0  0  0  0  0  0  0
   -5.7221    6.3037    0.0000 N   0  0  0  0  0  0  0  0  0  0  0  0
   -7.0211    7.0537    0.0000 C   0  0  0  0  0  0  0  0  0  0  0  0
   -8.3202    6.3037    0.0000 C   0  0  0  0  0  0  0  0  0  0  0  0
   -9.6192    7.0537    0.0000 C   0  0  0  0  0  0  0  0  0  0  0  0
   -8.3202    4.8037    0.0000 C   0  0  0  0  0  0  0  0  0  0  0  0
   -9.6192    4.0537    0.0000 O   0  0  0  0  0  0  0  0  0  0  0  0
   -9.6192    2.5537    0.0000 C   0  0  0  0  0  0  0  0  0  0  0  0
   -7.0211    4.0537    0.0000 C   0  0  0  0  0  0  0  0  0  0  0  0
   -7.0211    2.5537    0.0000 C   0  0  0  0  0  0  0  0  0  0  0  0
  1  2  1  0
  2  3  1  0
  3  4  2  0
  4  5  1  0
  5  6  2  0
  6  7  1  0
  7  8  1  0
  8  9  2  0
  9 10  1  0
 10 11  2  0
  8 12  1  0
 12 13  1  0
 12 14  1  0
 14 15  1  0
 15 16  2  0
 16 17  1  0
 17 18  2  0
 18 19  1  0
 18 20  1  0
 20 21  1  0
 21 22  1  0
 20 23  2  0
 23 24  1  0
 11  3  1  0
 10  6  1  0
 23 15  1  0
M  CHG  2  12   1  13  -1
M  END
$$$$
699395
     RDKit          2D

 19 20  0  0  0  0  0  0  0  0999 V2000
    3.7500   -1.2990    0.0000 C   0  0  0  0  0  0  0  0  0  0  0  0
    3.0000    0.0000    0.0000 O   0  0  0  0  0  0  0  0  0  0  0  0
    1.5000    0.0000    0.0000 C   0  0  0  0  0  0  0  0  0  0  0  0
    0.7500   -1.2990    0.0000 C   0  0  0  0  0  0  0  0  0  0  0  0
   -0.7500   -1.2990    0.0000 C   0  0  0  0  0  0  0  0  0  0  0  0
   -1.5000    0.0000    0.0000 C   0  0  0  0  0  0  0  0  0  0  0  0
   -0.7500    1.2990    0.0000 C   0  0  0  0  0  0  0  0  0  0  0  0
    0.7500    1.2990    0.0000 C   0  0  0  0  0  0  0  0  0  0  0  0
   -1.5000    2.5981    0.0000 C   0  0  0  0  0  0  0  0  0  0  0  0
   -2.6491    1.6339    0.0000 O   0  0  0  0  0  0  0  0  0  0  0  0
   -0.0905    3.1111    0.0000 C   0  0  0  0  0  0  0  0  0  0  0  0
    0.1700    4.5883    0.0000 C   0  0  0  0  0  0  0  0  0  0  0  0
   -0.9791    5.5525    0.0000 C   0  0  0  0  0  0  0  0  0  0  0  0
   -2.3886    5.0395    0.0000 C   0  0  0  0  0  0  0  0  0  0  0  0
   -2.6491    3.5623    0.0000 C   0  0  0  0  0  0  0  0  0  0  0  0
   -4.0586    3.0492    0.0000 C   0  0  0  0  0  0  0  0  0  0  0  0
   -5.2077    4.0134    0.0000 N   0  0  0  0  0  0  0  0  0  0  0  0
   -6.6172    3.5004    0.0000 C   0  0  0  0  0  0  0  0  0  0  0  0
   -4.9472    5.4906    0.0000 C   0  0  0  0  0  0  0  0  0  0  0  0
  1  2  1  0
  2  3  1  0
  3  4  2  0
  4  5  1  0
  5  6  2  0
  6  7  1  0
  7  8  2  0
  7  9  1  0
  9 10  1  0
  9 11  1  0
 11 12  1  0
 12 13  1  0
 13 14  1  0
 14 15  1  0
 15 16  1  0
 16 17  1  0
 17 18  1  0
 17 19  1  0
  8  3  1  0
 15  9  1  0
M  END
$$$$
93617
     RDKit          2D

 39 42  0  0  0  0  0  0  0  0999 V2000
    3.7500   -1.2990    0.0000 C   0  0  0  0  0  0  0  0  0  0  0  0
    3.0000    0.0000    0.0000 O   0  0  0  0  0  0  0  0  0  0  0  0
    1.5000    0.0000    0.0000 C   0  0  0  0  0  0  0  0  0  0  0  0
    0.7500   -1.2990    0.0000 C   0  0  0  0  0  0  0  0  0  0  0  0
   -0.7500   -1.2990    0.0000 C   0  0  0  0  0  0  0  0  0  0  0  0
   -1.5000    0.0000    0.0000 C   0  0  0  0  0  0  0  0  0  0  0  0
   -0.7500    1.2990    0.0000 C   0  0  0  0  0  0  0  0  0  0  0  0
    0.7500    1.2990    0.0000 C   0  0  0  0  0  0  0  0  0  0  0  0
    1.5000    2.5981    0.0000 O   0  0  0  0  0  0  0  0  0  0  0  0
    0.7500    3.8971    0.0000 C   0  0  0  0  0  0  0  0  0  0  0  0
    1.5000    5.1962    0.0000 C   0  0  0  0  0  0  0  0  0  0  0  0
    3.0000    5.1962    0.0000 N   0  0  0  0  0  0  0  0  0  0  0  0
    3.7500    6.4952    0.0000 S   0  0  0  0  0  0  0  0  0  0  0  0
    2.4510    7.2452    0.0000 O   0  0  0  0  0  0  0  0  0  0  0  0
    5.0490    5.7452    0.0000 O   0  0  0  0  0  0  0  0  0  0  0  0
    4.5000    7.7942    0.0000 C   0  0  0  0  0  0  0  0  0  0  0  0
    6.0000    7.7942    0.0000 C   0  0  0  0  0  0  0  0  0  0  0  0
    6.7500    9.0933    0.0000 C   0  0  0  0  0  0  0  0  0  0  0  0
    6.0000   10.3923    0.0000 C   0  0  0  0  0  0  0  0  0  0  0  0
    4.5000   10.3923    0.0000 C   0  0  0  0  0  0  0  0  0  0  0  0
    3.7500    9.0933    0.0000 C   0  0  0  0  0  0  0  0  0  0  0  0
    6.7500   11.6913    0.0000 C   0  0  0  0  0  0  0  0  0  0  0  0
    8.0490   10.9413    0.0000 C   0  0  0  0  0  0  0  0  0  0  0  0
    5.4510   12.4413    0.0000 C   0  0  0  0  0  0  0  0  0  0  0  0
    7.5000   12.9904    0.0000 C   0  0  0  0  0  0  0  0  0  0  0  0
    0.7500    6.4952    0.0000 N   0  0  0  0  0  0  0  0  0  0  0  0
   -0.7500    6.4952    0.0000 C   0  0  0  0  0  0  0  0  0  0  0  0
   -1.5000    5.1962    0.0000 N   0  0  0  0  0  0  0  0  0  0  0  0
   -0.7500    3.8971    0.0000 C   0  0  0  0  0  0  0  0  0  0  0  0
   -1.5000    2.5981    0.0000 O   0  0  0  0  0  0  0  0  0  0  0  0
   -3.0000    2.5981    0.0000 C   0  0  0  0  0  0  0  0  0  0  0  0
   -3.7500    1.2990    0.0000 C   0  0  0  0  0  0  0  0  0  0  0  0
   -5.2500    1.2990    0.0000 O   0  0  0  0  0  0  0  0  0  0  0  0
   -1.5000    7.7942    0.0000 C   0  0  0  0  0  0  0  0  0  0  0  0
   -0.7500    9.0933    0.0000 N   0  0  0  0  0  0  0  0  0  0  0  0
   -1.5000   10.3923    0.0000 C   0  0  0  0  0  0  0  0  0  0  0  0
   -3.0000   10.3923    0.0000 C   0  0  0  0  0  0  0  0  0  0  0  0
   -3.7500    9.0933    0.0000 C   0  0  0  0  0  0  0  0  0  0  0  0
   -3.0000    7.7942    0.0000 N   0  0  0  0  0  0  0  0  0  0  0  0
  1  2  1  0
  2  3  1  0
  3  4  2  0
  4  5  1  0
  5  6  2  0
  6  7  1  0
  7  8  2  0
  8  9  1  0
  9 10  1  0
 10 11  1  0
 11 12  1  0
 12 13  1  0
 13 14  2  0
 13 15  2  0
 13 16  1  0
 16 17  2  0
 17 18  1  0
 18 19  2  0
 19 20  1  0
 20 21  2  0
 19 22  1  0
 22 23  1  0
 22 24  1  0
 22 25  1  0
 11 26  2  0
 26 27  1  0
 27 28  2  0
 28 29  1  0
 29 30  1  0
 30 31  1  0
 31 32  1  0
 32 33  1  0
 27 34  1  0
 34 35  2  0
 35 36  1  0
 36 37  2  0
 37 38  1  0
 38 39  2  0
  8  3  1  0
 29 10  2  0
 21 16  1  0
 39 34  1  0
M  END
$$$$
341382
     RDKit          2D

 31 33  0  0  0  0  0  0  0  0999 V2000
    3.7500   -1.2990    0.0000 C   0  0  0  0  0  0  0  0  0  0  0  0
    3.0000    0.0000    0.0000 O   0  0  0  0  0  0  0  0  0  0  0  0
    1.5000    0.0000    0.0000 C   0  0  0  0  0  0  0  0  0  0  0  0
    0.7500   -1.2990    0.0000 C   0  0  0  0  0  0  0  0  0  0  0  0
   -0.7500   -1.2990    0.0000 C   0  0  0  0  0  0  0  0  0  0  0  0
   -1.5000    0.0000    0.0000 C   0  0  0  0  0  0  0  0  0  0  0  0
   -0.7500    1.2990    0.0000 C   0  0  0  0  0  0  0  0  0  0  0  0
    0.7500    1.2990    0.0000 C   0  0  0  0  0  0  0  0  0  0  0  0
    1.5000    2.5981    0.0000 O   0  0  0  0  0  0  0  0  0  0  0  0
    0.7500    3.8971    0.0000 C   0  0  0  0  0  0  0  0  0  0  0  0
    1.5000    5.1962    0.0000 C   0  0  0  0  0  0  0  0  0  0  0  0
    3.0000    5.1962    0.0000 O   0  0  0  0  0  0  0  0  0  0  0  0
    0.7500    6.4952    0.0000 C   0  0  0  0  0  0  0  0  0  0  0  0
    1.5000    7.7942    0.0000 N   0  0  0  0  0  0  0  0  0  0  0  0
    3.0000    7.7942    0.0000 C   0  0  0  0  0  0  0  0  0  0  0  0
    3.7500    9.0933    0.0000 C   0  0  0  0  0  0  0  0  0  0  0  0
    3.0000   10.3923    0.0000 N   0  0  0  0  0  0  0  0  0  0  0  0
    3.7500   11.6913    0.0000 C   0  0  0  0  0  0  0  0  0  0  0  0
    5.2500   11.6913    0.0000 C   0  0  0  0  0  0  0  0  0  0  0  0
    6.0000   10.3923    0.0000 O   0  0  0  0  0  0  0  0  0  0  0  0
    6.0000   12.9904    0.0000 N   0  0  0  0  0  0  0  0  0  0  0  0
    7.5000   12.9904    0.0000 C   0  0  0  0  0  0  0  0  0  0  0  0
    8.2500   11.6913    0.0000 C   0  0  0  0  0  0  0  0  0  0  0  0
    7.5000   10.3923    0.0000 C   0  0  0  0  0  0  0  0  0  0  0  0
    9.7500   11.6913    0.0000 C   0  0  0  0  0  0  0  0  0  0  0  0
   10.5000   12.9904    0.0000 C   0  0  0  0  0  0  0  0  0  0  0  0
    9.7500   14.2894    0.0000 C   0  0  0  0  0  0  0  0  0  0  0  0
    8.2500   14.2894    0.0000 C   0  0  0  0  0  0  0  0  0  0  0  0
    7.5000   15.5885    0.0000 C   0  0  0  0  0  0  0  0  0  0  0  0
    1.5000   10.3923    0.0000 C   0  0  0  0  0  0  0  0  0  0  0  0
    0.7500    9.0933    0.0000 C   0  0  0  0  0  0  0  0  0  0  0  0
  1  2  1  0
  2  3  1  0
  3  4  2  0
  4  5  1  0
  5  6  2  0
  6  7  1  0
  7  8  2  0
  8  9  1  0
  9 10  1  0
 10 11  1  0
 11 12  1  0
 11 13  1  0
 13 14  1  0
 14 15  1  0
 15 16  1  0
 16 17  1  0
 17 18  1  0
 18 19  1  0
 19 20  2  0
 19 21  1  0
 21 22  1  0
 22 23  2  0
 23 24  1  0
 23 25  1  0
 25 26  2  0
 26 27  1  0
 27 28  2  0
 28 29  1  0
 17 30  1  0
 30 31  1  0
  8  3  1  0
 31 14  1  0
 28 22  1  0
M  END
$$$$
100157
     RDKit          2D

 14 14  0  0  0  0  0  0  0  0999 V2000
    3.7500   -1.2990    0.0000 C   0  0  0  0  0  0  0  0  0  0  0  0
    3.0000    0.0000    0.0000 O   0  0  0  0  0  0  0  0  0  0  0  0
    1.5000    0.0000    0.0000 C   0  0  0  0  0  0  0  0  0  0  0  0
    0.7500   -1.2990    0.0000 C   0  0  0  0  0  0  0  0  0  0  0  0
   -0.7500   -1.2990    0.0000 C   0  0  0  0  0  0  0  0  0  0  0  0
   -1.5000    0.0000    0.0000 C   0  0  0  0  0  0  0  0  0  0  0  0
   -0.7500    1.2990    0.0000 C   0  0  0  0  0  0  0  0  0  0  0  0
    0.7500    1.2990    0.0000 C   0  0  0  0  0  0  0  0  0  0  0  0
    1.5000    2.5981    0.0000 O   0  0  0  0  0  0  0  0  0  0  0  0
    0.7500    3.8971    0.0000 C   0  0  0  0  0  0  0  0  0  0  0  0
    1.5000    5.1962    0.0000 C   0  0  0  0  0  0  0  0  0  0  0  0
    3.0000    5.1962    0.0000 O   0  0  0  0  0  0  0  0  0  0  0  0
    0.7500    6.4952    0.0000 C   0  0  0  0  0  0  0  0  0  0  0  0
    1.5000    7.7942    0.0000 O   0  0  0  0  0  0  0  0  0  0  0  0
  1  2  1  0
  2  3  1  0
  3  4  2  0
  4  5  1  0
  5  6  2  0
  6  7  1  0
  7  8  2  0
  8  9  1  0
  9 10  1  0
 10 11  1  0
 11 12  1  0
 11 13  1  0
 13 14  1  0
  8  3  1  0
M  END
$$$$
675068
     RDKit          2D

 17 17  0  0  0  0  0  0  0  0999 V2000
    3.7500   -1.2990    0.0000 C   0  0  0  0  0  0  0  0  0  0  0  0
    3.0000    0.0000    0.0000 O   0  0  0  0  0  0  0  0  0  0  0  0
    1.5000    0.0000    0.0000 C   0  0  0  0  0  0  0  0  0  0  0  0
    0.7500   -1.2990    0.0000 C   0  0  0  0  0  0  0  0  0  0  0  0
   -0.7500   -1.2990    0.0000 C   0  0  0  0  0  0  0  0  0  0  0  0
   -1.5000    0.0000    0.0000 C   0  0  0  0  0  0  0  0  0  0  0  0
   -0.7500    1.2990    0.0000 C   0  0  0  0  0  0  0  0  0  0  0  0
    0.7500    1.2990    0.0000 C   0  0  0  0  0  0  0  0  0  0  0  0
    1.5000    2.5981    0.0000 O   0  0  0  0  0  0  0  0  0  0  0  0
    0.7500    3.8971    0.0000 C   0  0  0  0  0  0  0  0  0  0  0  0
    1.5000    5.1962    0.0000 C   0  0  0  0  0  0  0  0  0  0  0  0
    3.0000    5.1962    0.0000 O   0  0  0  0  0  0  0  0  0  0  0  0
    0.7500    6.4952    0.0000 C   0  0  0  0  0  0  0  0  0  0  0  0
    1.5000    7.7942    0.0000 O   0  0  0  0  0  0  0  0  0  0  0  0
    0.7500    9.0933    0.0000 C   0  0  0  0  0  0  0  0  0  0  0  0
   -0.7500    9.0933    0.0000 O   0  0  0  0  0  0  0  0  0  0  0  0
    1.5000   10.3923    0.0000 N   0  0  0  0  0  0  0  0  0  0  0  0
  1  2  1  0
  2  3  1  0
  3  4  2  0
  4  5  1  0
  5  6  2  0
  6  7  1  0
  7  8  2  0
  8  9  1  0
  9 10  1  0
 10 11  1  0
 11 12  1  0
 11 13  1  0
 13 14  1  0
 14 15  1  0
 15 16  2  0
 15 17  1  0
  8  3  1  0
M  END
$$$$
36662
     RDKit          2D

 30 33  0  0  0  0  0  0  0  0999 V2000
  -17.0302   -4.0798    0.0000 C   0  0  0  0  0  0  0  0  0  0  0  0
  -15.6599   -3.4696    0.0000 O   0  0  0  0  0  0  0  0  0  0  0  0
  -15.5031   -1.9779    0.0000 C   0  0  0  0  0  0  0  0  0  0  0  0
  -16.7166   -1.0962    0.0000 C   0  0  0  0  0  0  0  0  0  0  0  0
  -16.5598    0.3956    0.0000 C   0  0  0  0  0  0  0  0  0  0  0  0
  -15.1895    1.0057    0.0000 C   0  0  0  0  0  0  0  0  0  0  0  0
  -13.9760    0.1240    0.0000 C   0  0  0  0  0  0  0  0  0  0  0  0
  -14.1327   -1.3678    0.0000 C   0  0  0  0  0  0  0  0  0  0  0  0
  -12.9192   -2.2494    0.0000 O   0  0  0  0  0  0  0  0  0  0  0  0
  -11.5489   -1.6393    0.0000 C   0  0  0  0  0  0  0  0  0  0  0  0
  -10.3354   -2.5210    0.0000 C   0  0  0  0  0  0  0  0  0  0  0  0
   -8.9651   -1.9109    0.0000 N   0  0  0  0  0  0  0  0  0  0  0  0
   -7.7515   -2.7926    0.0000 C   0  0  0  0  0  0  0  0  0  0  0  0
   -6.3812   -2.1825    0.0000 C   0  0  0  0  0  0  0  0  0  0  0  0
   -6.2244   -0.6907    0.0000 O   0  0  0  0  0  0  0  0  0  0  0  0
   -5.1677   -3.0642    0.0000 C   0  0  0  0  0  0  0  0  0  0  0  0
   -3.7974   -2.4540    0.0000 O   0  0  0  0  0  0  0  0  0  0  0  0
   -2.5838   -3.3357    0.0000 C   0  0  0  0  0  0  0  0  0  0  0  0
   -2.7406   -4.8275    0.0000 C   0  0  0  0  0  0  0  0  0  0  0  0
   -1.5271   -5.7092    0.0000 C   0  0  0  0  0  0  0  0  0  0  0  0
   -0.1568   -5.0991    0.0000 C   0  0  0  0  0  0  0  0  0  0  0  0
   -0.0000   -3.6073    0.0000 C   0  0  0  0  0  0  0  0  0  0  0  0
    1.2135   -2.7256    0.0000 N   0  0  0  0  0  0  0  0  0  0  0  0
    0.7500   -1.2990    0.0000 C   0  0  0  0  0  0  0  0  0  0  0  0
    1.5000    0.0000    0.0000 C   0  0  0  0  0  0  0  0  0  0  0  0
    0.7500    1.2990    0.0000 C   0  0  0  0  0  0  0  0  0  0  0  0
   -0.7500    1.2990    0.0000 C   0  0  0  0  0  0  0  0  0  0  0  0
   -1.5000    0.0000    0.0000 C   0  0  0  0  0  0  0  0  0  0  0  0
   -0.7500   -1.2990    0.0000 C   0  0  0  0  0  0  0  0  0  0  0  0
   -1.2135   -2.7256    0.0000 C   0  0  0  0  0  0  0  0  0  0  0  0
  1  2  1  0
  2  3  1  0
  3  4  2  0
  4  5  1  0
  5  6  2  0
  6  7  1  0
  7  8  2  0
  8  9  1  0
  9 10  1  0
 10 11  1  0
 11 12  1  0
 12 13  1  0
 13 14  1  0
 14 15  1  0
 14 16  1  0
 16 17  1  0
 17 18  1  0
 18 19  2  0
 19 20  1  0
 20 21  2  0
 21 22  1  0
 22 23  1  0
 23 24  1  0
 24 25  2  0
 25 26  1  0
 26 27  2  0
 27 28  1  0
 28 29  2  0
 29 30  1  0
  8  3  1  0
 30 18  1  0
 30 22  2  0
 29 24  1  0
M  END
$$$$
675118
     RDKit          2D

 35 37  0  0  0  0  0  0  0  0999 V2000
  -17.0302   -4.0798    0.0000 C   0  0  0  0  0  0  0  0  0  0  0  0
  -15.6599   -3.4696    0.0000 O   0  0  0  0  0  0  0  0  0  0  0  0
  -15.5031   -1.9779    0.0000 C   0  0  0  0  0  0  0  0  0  0  0  0
  -16.7166   -1.0962    0.0000 C   0  0  0  0  0  0  0  0  0  0  0  0
  -16.5598    0.3956    0.0000 C   0  0  0  0  0  0  0  0  0  0  0  0
  -15.1895    1.0057    0.0000 C   0  0  0  0  0  0  0  0  0  0  0  0
  -13.9760    0.1240    0.0000 C   0  0  0  0  0  0  0  0  0  0  0  0
  -14.1327   -1.3678    0.0000 C   0  0  0  0  0  0  0  0  0  0  0  0
  -12.9192   -2.2494    0.0000 O   0  0  0  0  0  0  0  0  0  0  0  0
  -11.5489   -1.6393    0.0000 C   0  0  0  0  0  0  0  0  0  0  0  0
  -10.3354   -2.5210    0.0000 C   0  0  0  0  0  0  0  0  0  0  0  0
   -8.9651   -1.9109    0.0000 N   0  0  0  0  0  0  0  0  0  0  0  0
   -7.7515   -2.7926    0.0000 C   0  0  0  0  0  0  0  0  0  0  0  0
   -6.3812   -2.1825    0.0000 C   0  0  0  0  0  0  0  0  0  0  0  0
   -6.2244   -0.6907    0.0000 O   0  0  0  0  0  0  0  0  0  0  0  0
   -5.1677   -3.0642    0.0000 C   0  0  0  0  0  0  0  0  0  0  0  0
   -3.7974   -2.4540    0.0000 O   0  0  0  0  0  0  0  0  0  0  0  0
   -2.5838   -3.3357    0.0000 C   0  0  0  0  0  0  0  0  0  0  0  0
   -2.7406   -4.8275    0.0000 C   0  0  0  0  0  0  0  0  0  0  0  0
   -1.5271   -5.7092    0.0000 C   0  0  0  0  0  0  0  0  0  0  0  0
   -0.1568   -5.0991    0.0000 C   0  0  0  0  0  0  0  0  0  0  0  0
   -0.0000   -3.6073    0.0000 C   0  0  0  0  0  0  0  0  0  0  0  0
    1.2135   -2.7256    0.0000 N   0  0  0  0  0  0  0  0  0  0  0  0
    0.7500   -1.2990    0.0000 C   0  0  0  0  0  0  0  0  0  0  0  0
    1.5000    0.0000    0.0000 C   0  0  0  0  0  0  0  0  0  0  0  0
    0.7500    1.2990    0.0000 C   0  0  0  0  0  0  0  0  0  0  0  0
   -0.7500    1.2990    0.0000 C   0  0  0  0  0  0  0  0  0  0  0  0
   -1.5000    0.0000    0.0000 C   0  0  0  0  0  0  0  0  0  0  0  0
   -0.7500   -1.2990    0.0000 C   0  0  0  0  0  0  0  0  0  0  0  0
   -1.2135   -2.7256    0.0000 C   0  0  0  0  0  0  0  0  0  0  0  0
    0.0000    2.8481    0.0000 O   0  0  0  0  0  0  0  0  0  0  0  0
    1.2990    3.5981    0.0000 P   0  0  0  0  0  0  0  0  0  0  0  0
    2.5981    4.3481    0.0000 O   0  0  0  0  0  0  0  0  0  0  0  0
    0.5490    4.8971    0.0000 O   0  0  0  0  0  0  0  0  0  0  0  0
    2.0490    2.2990    0.0000 O   0  0  0  0  0  0  0  0  0  0  0  0
  1  2  1  0
  2  3  1  0
  3  4  2  0
  4  5  1  0
  5  6  2  0
  6  7  1  0
  7  8  2  0
  8  9  1  0
  9 10  1  0
 10 11  1  0
 11 12  1  0
 12 13  1  0
 13 14  1  0
 14 15  1  0
 14 16  1  0
 16 17  1  0
 17 18  1  0
 18 19  2  0
 19 20  1  0
 20 21  2  0
 21 22  1  0
 22 23  1  0
 23 24  1  0
 24 25  2  0
 25 26  1  0
 26 27  2  0
 27 28  1  0
 28 29  2  0
 29 30  1  0
 31 32  1  0
 32 33  2  0
 32 34  1  0
 32 35  1  0
  8  3  1  0
 30 18  1  0
 30 22  2  0
 29 24  1  0
M  END
$$$$
419598
     RDKit          2D

 26 28  0  0  0  0  0  0  0  0999 V2000
    1.2990  -11.8573    0.0000 C   0  0  0  0  0  0  0  0  0  0  0  0
    1.2990  -10.3573    0.0000 O   0  0  0  0  0  0  0  0  0  0  0  0
   -0.0000   -9.6073    0.0000 C   0  0  0  0  0  0  0  0  0  0  0  0
   -1.2990  -10.3573    0.0000 C   0  0  0  0  0  0  0  0  0  0  0  0
   -2.5981   -9.6073    0.0000 C   0  0  0  0  0  0  0  0  0  0  0  0
   -2.5981   -8.1073    0.0000 N   0  0  0  0  0  0  0  0  0  0  0  0
   -1.2990   -7.3573    0.0000 C   0  0  0  0  0  0  0  0  0  0  0  0
   -1.2990   -5.8573    0.0000 C   0  0  0  0  0  0  0  0  0  0  0  0
   -0.0000   -5.1073    0.0000 S   0  0  0  0  0  3  0  0  0  0  0  0
    1.2990   -5.8573    0.0000 O   0  0  0  0  0  1  0  0  0  0  0  0
   -0.0000   -3.6073    0.0000 C   0  0  0  0  0  0  0  0  0  0  0  0
    1.2135   -2.7256    0.0000 N   0  0  0  0  0  0  0  0  0  0  0  0
    0.7500   -1.2990    0.0000 C   0  0  0  0  0  0  0  0  0  0  0  0
    1.5000    0.0000    0.0000 C   0  0  0  0  0  0  0  0  0  0  0  0
    0.7500    1.2990    0.0000 C   0  0  0  0  0  0  0  0  0  0  0  0
    1.5000    2.5981    0.0000 O   0  0  0  0  0  0  0  0  0  0  0  0
    3.0000    2.5981    0.0000 C   0  0  0  0  0  0  0  0  0  0  0  0
    3.7500    3.8971    0.0000 F   0  0  0  0  0  0  0  0  0  0  0  0
    3.7500    1.2990    0.0000 F   0  0  0  0  0  0  0  0  0  0  0  0
   -0.7500    1.2990    0.0000 C   0  0  0  0  0  0  0  0  0  0  0  0
   -1.5000    0.0000    0.0000 C   0  0  0  0  0  0  0  0  0  0  0  0
   -0.7500   -1.2990    0.0000 C   0  0  0  0  0  0  0  0  0  0  0  0
   -1.2135   -2.7256    0.0000 N   0  0  0  0  0  0  0  0  0  0  0  0
   -0.0000   -8.1073    0.0000 C   0  0  0  0  0  0  0  0  0  0  0  0
    1.2990   -7.3573    0.0000 O   0  0  0  0  0  0  0  0  0  0  0  0
    2.5981   -8.1073    0.0000 C   0  0  0  0  0  0  0  0  0  0  0  0
  1  2  1  0
  2  3  1  0
  3  4  2  0
  4  5  1  0
  5  6  2  0
  6  7  1  0
  7  8  1  0
  8  9  1  0
  9 10  1  0
  9 11  1  0
 11 12  2  0
 12 13  1  0
 13 14  2  0
 14 15  1  0
 15 16  1  0
 16 17  1  0
 17 18  1  0
 17 19  1  0
 15 20  2  0
 20 21  1  0
 21 22  2  0
 22 23  1  0
  7 24  2  0
 24 25  1  0
 25 26  1  0
 24  3  1  0
 23 11  1  0
 22 13  1  0
M  CHG  2   9   1  10  -1
M  END
$$$$
557741
     RDKit          2D

 32 34  0  0  0  0  0  0  0  0999 V2000
    3.7500   -1.2990    0.0000 C   0  0  0  0  0  0  0  0  0  0  0  0
    3.0000    0.0000    0.0000 O   0  0  0  0  0  0  0  0  0  0  0  0
    1.5000    0.0000    0.0000 C   0  0  0  0  0  0  0  0  0  0  0  0
    0.7500   -1.2990    0.0000 C   0  0  0  0  0  0  0  0  0  0  0  0
   -0.7500   -1.2990    0.0000 N   0  0  0  0  0  0  0  0  0  0  0  0
   -1.5000   -2.5981    0.0000 C   0  0  0  0  0  0  0  0  0  0  0  0
   -3.0000   -2.5981    0.0000 C   0  0  0  0  0  0  0  0  0  0  0  0
   -3.7500   -3.8971    0.0000 C   0  0  0  0  0  0  0  0  0  0  0  0
   -5.2500   -3.8971    0.0000 O   0  0  0  0  0  0  0  0  0  0  0  0
   -6.0000   -5.1962    0.0000 C   0  0  0  0  0  0  0  0  0  0  0  0
   -7.5000   -5.1962    0.0000 C   0  0  0  0  0  0  0  0  0  0  0  0
   -8.2500   -6.4952    0.0000 C   0  0  0  0  0  0  0  0  0  0  0  0
   -7.5000   -7.7942    0.0000 C   0  0  0  0  0  0  0  0  0  0  0  0
   -8.2500   -9.0933    0.0000 F   0  0  0  0  0  0  0  0  0  0  0  0
   -6.0000   -7.7942    0.0000 C   0  0  0  0  0  0  0  0  0  0  0  0
   -5.2500   -6.4952    0.0000 C   0  0  0  0  0  0  0  0  0  0  0  0
   -1.5000    0.0000    0.0000 C   0  0  0  0  0  0  0  0  0  0  0  0
   -0.7500    1.2990    0.0000 C   0  0  0  0  0  0  0  0  0  0  0  0
    0.7500    1.2990    0.0000 C   0  0  0  0  0  0  0  0  0  0  0  0
    1.5000    2.5981    0.0000 N   0  0  0  0  0  0  0  0  0  0  0  0
    3.0000    2.5981    0.0000 C   0  0  0  0  0  0  0  0  0  0  0  0
    3.7500    1.2990    0.0000 O   0  0  0  0  0  0  0  0  0  0  0  0
    3.7500    3.8971    0.0000 C   0  0  0  0  0  0  0  0  0  0  0  0
    5.2500    3.8971    0.0000 C   0  0  0  0  0  0  0  0  0  0  0  0
    6.0000    5.1962    0.0000 C   0  0  0  0  0  0  0  0  0  0  0  0
    7.5000    5.1962    0.0000 Cl  0  0  0  0  0  0  0  0  0  0  0  0
    5.2500    6.4952    0.0000 C   0  0  0  0  0  0  0  0  0  0  0  0
    6.0000    7.7942    0.0000 N   0  0  0  0  0  0  0  0  0  0  0  0
    3.7500    6.4952    0.0000 C   0  0  0  0  0  0  0  0  0  0  0  0
    3.0000    5.1962    0.0000 C   0  0  0  0  0  0  0  0  0  0  0  0
    1.5000    5.1962    0.0000 O   0  0  0  0  0  0  0  0  0  0  0  0
    0.7500    6.4952    0.0000 C   0  0  0  0  0  0  0  0  0  0  0  0
  1  2  1  0
  2  3  1  0
  3  4  1  0
  4  5  1  0
  5  6  1  0
  6  7  1  0
  7  8  1  0
  8  9  1  0
  9 10  1  0
 10 11  2  0
 11 12  1  0
 12 13  2  0
 13 14  1  0
 13 15  1  0
 15 16  2  0
  5 17  1  0
 17 18  1  0
 18 19  1  0
 19 20  1  0
 20 21  1  0
 21 22  2  0
 21 23  1  0
 23 24  2  0
 24 25  1  0
 25 26  1  0
 25 27  2  0
 27 28  1  0
 27 29  1  0
 29 30  2  0
 30 31  1  0
 31 32  1  0
 19  3  1  0
 16 10  1  0
 30 23  1  0
M  END
$$$$
674310
     RDKit          2D

 19 20  0  0  0  0  0  0  0  0999 V2000
    3.7500   -1.2990    0.0000 C   0  0  0  0  0  0  0  0  0  0  0  0
    3.0000    0.0000    0.0000 O   0  0  0  0  0  0  0  0  0  0  0  0
    1.5000    0.0000    0.0000 C   0  0  0  0  0  0  0  0  0  0  0  0
    0.7500   -1.2990    0.0000 C   0  0  0  0  0  0  0  0  0  0  0  0
   -0.7500   -1.2990    0.0000 N   0  0  0  0  0  0  0  0  0  0  0  0
   -1.5000    0.0000    0.0000 C   0  0  0  0  0  0  0  0  0  0  0  0
   -3.0000    0.0000    0.0000 N   0  0  0  0  0  0  0  0  0  0  0  0
   -3.7500    1.2990    0.0000 S   0  0  0  0  0  0  0  0  0  0  0  0
   -2.4510    2.0490    0.0000 O   0  0  0  0  0  0  0  0  0  0  0  0
   -5.0490    0.5490    0.0000 O   0  0  0  0  0  0  0  0  0  0  0  0
   -4.5000    2.5981    0.0000 C   0  0  0  0  0  0  0  0  0  0  0  0
   -3.7500    3.8971    0.0000 C   0  0  0  0  0  0  0  0  0  0  0  0
   -4.5000    5.1962    0.0000 C   0  0  0  0  0  0  0  0  0  0  0  0
   -6.0000    5.1962    0.0000 C   0  0  0  0  0  0  0  0  0  0  0  0
   -6.7500    6.4952    0.0000 N   0  0  0  0  0  0  0  0  0  0  0  0
   -6.7500    3.8971    0.0000 C   0  0  0  0  0  0  0  0  0  0  0  0
   -6.0000    2.5981    0.0000 C   0  0  0  0  0  0  0  0  0  0  0  0
   -0.7500    1.2990    0.0000 N   0  0  0  0  0  0  0  0  0  0  0  0
    0.7500    1.2990    0.0000 C   0  0  0  0  0  0  0  0  0  0  0  0
  1  2  1  0
  2  3  1  0
  3  4  2  0
  4  5  1  0
  5  6  2  0
  6  7  1  0
  7  8  1  0
  8  9  2  0
  8 10  2  0
  8 11  1  0
 11 12  2  0
 12 13  1  0
 13 14  2  0
 14 15  1  0
 14 16  1  0
 16 17  2  0
  6 18  1  0
 18 19  2  0
 19  3  1  0
 17 11  1  0
M  END
$$$$
373981
     RDKit          2D

 37 41  0  0  0  0  0  0  0  0999 V2000
    3.0000   -5.1962    0.0000 C   0  0  0  0  0  0  0  0  0  0  0  0
    1.5000   -5.1962    0.0000 O   0  0  0  0  0  0  0  0  0  0  0  0
    0.7500   -3.8971    0.0000 C   0  0  0  0  0  0  0  0  0  0  0  0
    1.5000   -2.5981    0.0000 N   0  0  0  0  0  0  0  0  0  0  0  0
    0.7500   -1.2990    0.0000 C   0  0  0  0  0  0  0  0  0  0  0  0
    1.5000    0.0000    0.0000 C   0  0  0  0  0  0  0  0  0  0  0  0
    0.7500    1.2990    0.0000 C   0  0  0  0  0  0  0  0  0  0  0  0
   -0.7500    1.2990    0.0000 C   0  0  0  0  0  0  0  0  0  0  0  0
   -1.5000    2.5981    0.0000 Br  0  0  0  0  0  0  0  0  0  0  0  0
   -1.5000    0.0000    0.0000 C   0  0  0  0  0  0  0  0  0  0  0  0
   -0.7500   -1.2990    0.0000 C   0  0  0  0  0  0  0  0  0  0  0  0
   -1.5000   -2.5981    0.0000 C   0  0  0  0  0  0  0  0  0  0  0  0
   -0.7500   -3.8971    0.0000 C   0  0  0  0  0  0  0  0  0  0  0  0
   -1.5000   -5.1962    0.0000 C   0  0  0  0  0  0  0  0  0  0  0  0
   -3.0000   -5.1962    0.0000 C   0  0  0  0  0  0  0  0  0  0  0  0
   -3.7500   -3.8971    0.0000 C   0  0  0  0  0  0  0  0  0  0  0  0
   -5.2500   -3.8971    0.0000 C   0  0  0  0  0  0  0  0  0  0  0  0
   -6.0000   -5.1962    0.0000 C   0  0  0  0  0  0  0  0  0  0  0  0
   -5.2500   -6.4952    0.0000 C   0  0  0  0  0  0  0  0  0  0  0  0
   -3.7500   -6.4952    0.0000 C   0  0  0  0  0  0  0  0  0  0  0  0
   -0.7500   -6.4952    0.0000 C   0  0  0  0  0  0  0  0  0  0  0  0
    0.5490   -5.7452    0.0000 O   0  0  0  0  0  0  0  0  0  0  0  0
   -0.0000   -7.7942    0.0000 C   0  0  0  0  0  0  0  0  0  0  0  0
    1.5000   -7.7942    0.0000 C   0  0  0  0  0  0  0  0  0  0  0  0
    2.2500   -9.0933    0.0000 N   0  0  0  0  0  0  0  0  0  0  0  0
    3.7500   -9.0933    0.0000 C   0  0  0  0  0  0  0  0  0  0  0  0
    1.5000  -10.3923    0.0000 C   0  0  0  0  0  0  0  0  0  0  0  0
   -2.0490   -7.2452    0.0000 C   0  0  0  0  0  0  0  0  0  0  0  0
   -3.3481   -6.4952    0.0000 C   0  0  0  0  0  0  0  0  0  0  0  0
   -4.6471   -7.2452    0.0000 C   0  0  0  0  0  0  0  0  0  0  0  0
   -4.6471   -8.7452    0.0000 C   0  0  0  0  0  0  0  0  0  0  0  0
   -3.3481   -9.4952    0.0000 C   0  0  0  0  0  0  0  0  0  0  0  0
   -3.3481  -10.9952    0.0000 C   0  0  0  0  0  0  0  0  0  0  0  0
   -2.0490  -11.7452    0.0000 C   0  0  0  0  0  0  0  0  0  0  0  0
   -0.7500  -10.9952    0.0000 C   0  0  0  0  0  0  0  0  0  0  0  0
   -0.7500   -9.4952    0.0000 C   0  0  0  0  0  0  0  0  0  0  0  0
   -2.0490   -8.7452    0.0000 C   0  0  0  0  0  0  0  0  0  0  0  0
  1  2  1  0
  2  3  1  0
  3  4  2  0
  4  5  1  0
  5  6  2  0
  6  7  1  0
  7  8  2  0
  8  9  1  0
  8 10  1  0
 10 11  2  0
 11 12  1  0
 12 13  2  0
 14 13  1  6
 14 15  1  0
 15 16  2  0
 16 17  1  0
 17 18  2  0
 18 19  1  0
 19 20  2  0
 14 21  1  0
 21 22  1  6
 21 23  1  0
 23 24  1  0
 24 25  1  0
 25 26  1  0
 25 27  1  0
 21 28  1  0
 28 29  2  0
 29 30  1  0
 30 31  2  0
 31 32  1  0
 32 33  2  0
 33 34  1  0
 34 35  2  0
 35 36  1  0
 36 37  2  0
 13  3  1  0
 11  5  1  0
 20 15  1  0
 37 28  1  0
 37 32  1  0
M  END
$$$$
1377970
     RDKit          2D

 45 48  0  0  0  0  0  0  0  0999 V2000
    3.0000   -5.1962    0.0000 C   0  0  0  0  0  0  0  0  0  0  0  0
    1.5000   -5.1962    0.0000 O   0  0  0  0  0  0  0  0  0  0  0  0
    0.7500   -3.8971    0.0000 C   0  0  0  0  0  0  0  0  0  0  0  0
    1.5000   -2.5981    0.0000 N   0  0  0  0  0  0  0  0  0  0  0  0
    0.7500   -1.2990    0.0000 C   0  0  0  0  0  0  0  0  0  0  0  0
    1.5000    0.0000    0.0000 C   0  0  0  0  0  0  0  0  0  0  0  0
    0.7500    1.2990    0.0000 C   0  0  0  0  0  0  0  0  0  0  0  0
   -0.7500    1.2990    0.0000 C   0  0  0  0  0  0  0  0  0  0  0  0
   -1.5000    2.5981    0.0000 Br  0  0  0  0  0  0  0  0  0  0  0  0
   -1.5000    0.0000    0.0000 C   0  0  0  0  0  0  0  0  0  0  0  0
   -0.7500   -1.2990    0.0000 C   0  0  0  0  0  0  0  0  0  0  0  0
   -1.5000   -2.5981    0.0000 C   0  0  0  0  0  0  0  0  0  0  0  0
   -0.7500   -3.8971    0.0000 C   0  0  0  0  0  0  0  0  0  0  0  0
   -1.5000   -5.1962    0.0000 C   0  0  0  0  0  0  0  0  0  0  0  0
   -3.0000   -5.1962    0.0000 C   0  0  0  0  0  0  0  0  0  0  0  0
   -3.7500   -3.8971    0.0000 C   0  0  0  0  0  0  0  0  0  0  0  0
   -5.2500   -3.8971    0.0000 C   0  0  0  0  0  0  0  0  0  0  0  0
   -6.0000   -5.1962    0.0000 C   0  0  0  0  0  0  0  0  0  0  0  0
   -5.2500   -6.4952    0.0000 C   0  0  0  0  0  0  0  0  0  0  0  0
   -3.7500   -6.4952    0.0000 C   0  0  0  0  0  0  0  0  0  0  0  0
   -0.7500   -6.4952    0.0000 C   0  0  0  0  0  0  0  0  0  0  0  0
    0.5490   -5.7452    0.0000 O   0  0  0  0  0  0  0  0  0  0  0  0
   -0.0000   -7.7942    0.0000 C   0  0  0  0  0  0  0  0  0  0  0  0
    1.5000   -7.7942    0.0000 C   0  0  0  0  0  0  0  0  0  0  0  0
    2.2500   -9.0933    0.0000 N   0  0  0  0  0  0  0  0  0  0  0  0
    3.7500   -9.0933    0.0000 C   0  0  0  0  0  0  0  0  0  0  0  0
    1.5000  -10.3923    0.0000 C   0  0  0  0  0  0  0  0  0  0  0  0
   -2.0490   -7.2452    0.0000 C   0  0  0  0  0  0  0  0  0  0  0  0
   -3.3481   -6.4952    0.0000 C   0  0  0  0  0  0  0  0  0  0  0  0
   -4.6471   -7.2452    0.0000 C   0  0  0  0  0  0  0  0  0  0  0  0
   -4.6471   -8.7452    0.0000 C   0  0  0  0  0  0  0  0  0  0  0  0
   -3.3481   -9.4952    0.0000 C   0  0  0  0  0  0  0  0  0  0  0  0
   -3.3481  -10.9952    0.0000 C   0  0  0  0  0  0  0  0  0  0  0  0
   -2.0490  -11.7452    0.0000 C   0  0  0  0  0  0  0  0  0  0  0  0
   -0.7500  -10.9952    0.0000 C   0  0  0  0  0  0  0  0  0  0  0  0
   -0.7500   -9.4952    0.0000 C   0  0  0  0  0  0  0  0  0  0  0  0
   -2.0490   -8.7452    0.0000 C   0  0  0  0  0  0  0  0  0  0  0  0
    4.7500   -1.2990    0.0000 O   0  0  0  0  0  0  0  0  0  0  0  0
    6.2500   -1.2990    0.0000 C   0  0  0  0  0  0  0  0  0  0  0  0
    7.0000   -2.5981    0.0000 O   0  0  0  0  0  0  0  0  0  0  0  0
    7.0000    0.0000    0.0000 C   0  0  0  0  0  0  0  0  0  0  0  0
    8.5000    0.0000    0.0000 C   0  0  0  0  0  0  0  0  0  0  0  0
    9.2500    1.2990    0.0000 C   0  0  0  0  0  0  0  0  0  0  0  0
    8.5000    2.5981    0.0000 O   0  0  0  0  0  0  0  0  0  0  0  0
   10.7500    1.2990    0.0000 O   0  0  0  0  0  0  0  0  0  0  0  0
  1  2  1  0
  2  3  1  0
  3  4  2  0
  4  5  1  0
  5  6  2  0
  6  7  1  0
  7  8  2  0
  8  9  1  0
  8 10  1  0
 10 11  2  0
 11 12  1  0
 12 13  2  0
 14 13  1  6
 14 15  1  0
 15 16  2  0
 16 17  1  0
 17 18  2  0
 18 19  1  0
 19 20  2  0
 14 21  1  0
 21 22  1  6
 21 23  1  0
 23 24  1  0
 24 25  1  0
 25 26  1  0
 25 27  1  0
 21 28  1  0
 28 29  2  0
 29 30  1  0
 30 31  2  0
 31 32  1  0
 32 33  2  0
 33 34  1  0
 34 35  2  0
 35 36  1  0
 36 37  2  0
 38 39  1  0
 39 40  2  0
 39 41  1  0
 41 42  2  0
 42 43  1  0
 43 44  2  0
 43 45  1  0
 13  3  1  0
 11  5  1  0
 20 15  1  0
 37 28  1  0
 37 32  1  0
M  END
$$$$
430546
     RDKit          2D

 21 22  0  0  0  0  0  0  0  0999 V2000
    3.7500   -1.2990    0.0000 C   0  0  0  0  0  0  0  0  0  0  0  0
    3.0000    0.0000    0.0000 O   0  0  0  0  0  0  0  0  0  0  0  0
    1.5000    0.0000    0.0000 C   0  0  0  0  0  0  0  0  0  0  0  0
    0.7500   -1.2990    0.0000 N   0  0  0  0  0  0  0  0  0  0  0  0
   -0.7500   -1.2990    0.0000 C   0  0  0  0  0  0  0  0  0  0  0  0
   -1.5000    0.0000    0.0000 N   0  0  0  0  0  0  0  0  0  0  0  0
   -0.7500    1.2990    0.0000 C   0  0  0  0  0  0  0  0  0  0  0  0
   -1.5000    2.5981    0.0000 N   0  0  0  0  0  0  0  0  0  0  0  0
   -0.7500    3.8971    0.0000 S   0  0  0  0  0  0  0  0  0  0  0  0
    0.5490    3.1471    0.0000 O   0  0  0  0  0  0  0  0  0  0  0  0
   -2.0490    4.6471    0.0000 O   0  0  0  0  0  0  0  0  0  0  0  0
    0.0000    5.1962    0.0000 C   0  0  0  0  0  0  0  0  0  0  0  0
    1.5000    5.1962    0.0000 C   0  0  0  0  0  0  0  0  0  0  0  0
    2.2500    6.4952    0.0000 C   0  0  0  0  0  0  0  0  0  0  0  0
    1.5000    7.7942    0.0000 C   0  0  0  0  0  0  0  0  0  0  0  0
    2.2500    9.0933    0.0000 N   0  0  0  0  0  0  0  0  0  0  0  0
    0.0000    7.7942    0.0000 C   0  0  0  0  0  0  0  0  0  0  0  0
   -0.7500    6.4952    0.0000 C   0  0  0  0  0  0  0  0  0  0  0  0
    0.7500    1.2990    0.0000 C   0  0  0  0  0  0  0  0  0  0  0  0
    1.5000    2.5981    0.0000 O   0  0  0  0  0  0  0  0  0  0  0  0
    3.0000    2.5981    0.0000 C   0  0  0  0  0  0  0  0  0  0  0  0
  1  2  1  0
  2  3  1  0
  3  4  2  0
  4  5  1  0
  5  6  2  0
  6  7  1  0
  7  8  1  0
  8  9  1  0
  9 10  2  0
  9 11  2  0
  9 12  1  0
 12 13  2  0
 13 14  1  0
 14 15  2  0
 15 16  1  0
 15 17  1  0
 17 18  2  0
  7 19  2  0
 19 20  1  0
 20 21  1  0
 19  3  1  0
 18 12  1  0
M  END
$$$$
72035
     RDKit          2D

 36 39  0  0  0  0  0  0  0  0999 V2000
   -5.4996   -8.3906    0.0000 C   0  0  0  0  0  0  0  0  0  0  0  0
   -4.0900   -7.8776    0.0000 O   0  0  0  0  0  0  0  0  0  0  0  0
   -3.8296   -6.4004    0.0000 C   0  0  0  0  0  0  0  0  0  0  0  0
   -2.4200   -5.8874    0.0000 C   0  0  0  0  0  0  0  0  0  0  0  0
   -1.2709   -6.8515    0.0000 O   0  0  0  0  0  0  0  0  0  0  0  0
   -2.1595   -4.4101    0.0000 O   0  0  0  0  0  0  0  0  0  0  0  0
   -0.7500   -3.8971    0.0000 C   0  0  0  0  0  0  0  0  0  0  0  0
   -0.4895   -5.3743    0.0000 C   0  0  0  0  0  0  0  0  0  0  0  0
    0.9200   -5.8874    0.0000 C   0  0  0  0  0  0  0  0  0  0  0  0
    1.1805   -7.3646    0.0000 N   0  0  0  0  0  0  0  0  0  0  0  0
    2.5900   -7.8776    0.0000 C   0  0  0  0  0  0  0  0  0  0  0  0
    0.0314   -8.3287    0.0000 C   0  0  0  0  0  0  0  0  0  0  0  0
    0.2919   -9.8060    0.0000 C   0  0  0  0  0  0  0  0  0  0  0  0
   -0.8572  -10.7701    0.0000 C   0  0  0  0  0  0  0  0  0  0  0  0
   -0.5967  -12.2474    0.0000 C   0  0  0  0  0  0  0  0  0  0  0  0
    0.7515  -12.9049    0.0000 N   0  0  0  0  0  0  0  0  0  0  0  0
    0.5427  -14.3903    0.0000 C   0  0  0  0  0  0  0  0  0  0  0  0
    1.5069  -15.5394    0.0000 C   0  0  0  0  0  0  0  0  0  0  0  0
    0.9939  -16.9489    0.0000 C   0  0  0  0  0  0  0  0  0  0  0  0
   -0.4833  -17.2094    0.0000 C   0  0  0  0  0  0  0  0  0  0  0  0
   -1.4475  -16.0603    0.0000 C   0  0  0  0  0  0  0  0  0  0  0  0
   -0.9345  -14.6508    0.0000 C   0  0  0  0  0  0  0  0  0  0  0  0
   -1.6387  -13.3264    0.0000 N   0  0  0  0  0  0  0  0  0  0  0  0
    0.7500   -3.8971    0.0000 C   0  0  0  0  0  0  0  0  0  0  0  0
    1.5000   -2.5981    0.0000 C   0  0  0  0  0  0  0  0  0  0  0  0
    0.7500   -1.2990    0.0000 C   0  0  0  0  0  0  0  0  0  0  0  0
    1.5000    0.0000    0.0000 C   0  0  0  0  0  0  0  0  0  0  0  0
    0.7500    1.2990    0.0000 C   0  0  0  0  0  0  0  0  0  0  0  0
    1.5000    2.5981    0.0000 F   0  0  0  0  0  0  0  0  0  0  0  0
   -0.7500    1.2990    0.0000 C   0  0  0  0  0  0  0  0  0  0  0  0
   -1.5000    0.0000    0.0000 C   0  0  0  0  0  0  0  0  0  0  0  0
   -0.7500   -1.2990    0.0000 C   0  0  0  0  0  0  0  0  0  0  0  0
   -1.5000   -2.5981    0.0000 C   0  0  0  0  0  0  0  0  0  0  0  0
   -3.0000   -2.5981    0.0000 C   0  0  0  0  0  0  0  0  0  0  0  0
   -3.7500   -3.8971    0.0000 C   0  0  0  0  0  0  0  0  0  0  0  0
   -3.7500   -1.2990    0.0000 C   0  0  0  0  0  0  0  0  0  0  0  0
  1  2  1  0
  2  3  1  0
  3  4  1  0
  4  5  2  0
  4  6  1  0
  6  7  1  0
  7  8  1  6
  8  9  1  0
  9 10  1  0
 10 11  1  0
 10 12  1  0
 12 13  1  0
 13 14  1  0
 14 15  1  0
 15 16  2  0
 16 17  1  0
 17 18  2  0
 18 19  1  0
 19 20  2  0
 20 21  1  0
 21 22  2  0
 22 23  1  0
  7 24  1  0
 24 25  1  0
 25 26  1  0
 26 27  2  0
 27 28  1  0
 28 29  1  0
 28 30  2  0
 30 31  1  0
 31 32  2  0
 32 33  1  0
 33 34  1  1
 34 35  1  0
 34 36  1  0
 33  7  1  0
 23 15  1  0
 22 17  1  0
 32 26  1  0
M  END
$$$$
674967
     RDKit          2D

 37 39  0  0  0  0  0  0  0  0999 V2000
    5.2500   -1.2990    0.0000 C   0  0  0  0  0  0  0  0  0  0  0  0
    3.7500   -1.2990    0.0000 O   0  0  0  0  0  0  0  0  0  0  0  0
    3.0000    0.0000    0.0000 C   0  0  0  0  0  0  0  0  0  0  0  0
    1.5000    0.0000    0.0000 C   0  0  0  0  0  0  0  0  0  0  0  0
    0.7500   -1.2990    0.0000 C   0  0  0  0  0  0  0  0  0  0  0  0
   -0.7500   -1.2990    0.0000 N   0  0  0  0  0  0  0  0  0  0  0  0
   -1.5000    0.0000    0.0000 C   0  0  0  0  0  0  0  0  0  0  0  0
   -0.7500    1.2990    0.0000 S   0  0  0  0  0  0  0  0  0  0  0  0
    0.7500    1.2990    0.0000 C   0  0  0  0  0  0  0  0  0  0  0  0
   -2.7990   -0.7500    0.0000 C   0  0  0  0  0  0  0  0  0  0  0  0
   -4.2479   -0.3618    0.0000 N   0  0  0  0  0  0  0  0  0  0  0  0
   -4.6362    1.0871    0.0000 C   0  0  0  0  0  0  0  0  0  0  0  0
   -3.5755    2.1478    0.0000 O   0  0  0  0  0  0  0  0  0  0  0  0
   -6.0850    1.4753    0.0000 C   0  0  0  0  0  0  0  0  0  0  0  0
   -6.4733    2.9242    0.0000 N   0  0  0  0  0  0  0  0  0  0  0  0
   -5.4126    3.9849    0.0000 O   0  0  0  0  0  0  0  0  0  0  0  0
   -5.8008    5.4338    0.0000 C   0  0  0  0  0  0  0  0  0  0  0  0
   -7.1457    0.4147    0.0000 C   0  0  0  0  0  0  0  0  0  0  0  0
   -6.9111   -1.0668    0.0000 C   0  0  0  0  0  0  0  0  0  0  0  0
   -8.2476   -1.7478    0.0000 S   0  0  0  0  0  0  0  0  0  0  0  0
   -9.3082   -0.6872    0.0000 C   0  0  0  0  0  0  0  0  0  0  0  0
  -10.7898   -0.9218    0.0000 N   0  0  0  0  0  0  0  0  0  0  0  0
   -8.6272    0.6493    0.0000 N   0  0  0  0  0  0  0  0  0  0  0  0
   -2.0490   -2.0490    0.0000 C   0  0  0  0  0  0  0  0  0  0  0  0
   -2.4373   -3.4979    0.0000 O   0  0  0  0  0  0  0  0  0  0  0  0
    1.5000   -2.5981    0.0000 C   0  0  0  0  0  0  0  0  0  0  0  0
    3.0000   -2.5981    0.0000 O   0  0  0  0  0  0  0  0  0  0  0  0
    0.7500   -3.8971    0.0000 O   0  0  0  0  0  0  0  0  0  0  0  0
    1.5000   -5.1962    0.0000 C   0  0  0  0  0  0  0  0  0  0  0  0
    0.7500   -6.4952    0.0000 C   0  0  0  0  0  0  0  0  0  0  0  0
    3.0000   -5.1962    0.0000 O   0  0  0  0  0  0  0  0  0  0  0  0
    3.7500   -6.4952    0.0000 C   0  0  0  0  0  0  0  0  0  0  0  0
    3.0000   -7.7942    0.0000 O   0  0  0  0  0  0  0  0  0  0  0  0
    5.2500   -6.4952    0.0000 O   0  0  0  0  0  0  0  0  0  0  0  0
    6.0000   -7.7942    0.0000 C   0  0  0  0  0  0  0  0  0  0  0  0
    7.5000   -7.7942    0.0000 C   0  0  0  0  0  0  0  0  0  0  0  0
    5.2500   -9.0933    0.0000 C   0  0  0  0  0  0  0  0  0  0  0  0
  1  2  1  0
  2  3  1  0
  3  4  1  0
  4  5  2  0
  5  6  1  0
  6  7  1  0
  7  8  1  1
  8  9  1  0
  7 10  1  0
 10 11  1  1
 11 12  1  0
 12 13  2  0
 12 14  1  0
 14 15  2  0
 15 16  1  0
 16 17  1  0
 14 18  1  0
 18 19  2  0
 19 20  1  0
 20 21  1  0
 21 22  1  0
 21 23  2  0
 10 24  1  0
 24 25  2  0
  5 26  1  0
 26 27  2  0
 26 28  1  0
 28 29  1  0
 29 30  1  0
 29 31  1  0
 31 32  1  0
 32 33  2  0
 32 34  1  0
 34 35  1  0
 35 36  1  0
 35 37  1  0
  9  4  1  0
 24  6  1  0
 23 18  1  0
M  END
$$$$
403465
     RDKit          2D

 33 34  0  0  0  0  0  0  0  0999 V2000
    5.2500   -1.2990    0.0000 C   0  0  0  0  0  0  0  0  0  0  0  0
    3.7500   -1.2990    0.0000 O   0  0  0  0  0  0  0  0  0  0  0  0
    3.0000    0.0000    0.0000 C   0  0  0  0  0  0  0  0  0  0  0  0
    1.5000    0.0000    0.0000 C   0  0  0  0  0  0  0  0  0  0  0  0
    0.7500   -1.2990    0.0000 C   0  0  0  0  0  0  0  0  0  0  0  0
   -0.7500   -1.2990    0.0000 N   0  0  0  0  0  0  0  0  0  0  0  0
   -1.5000    0.0000    0.0000 C   0  0  0  0  0  0  0  0  0  0  0  0
   -3.0000    0.0000    0.0000 C   0  0  0  0  0  0  0  0  0  0  0  0
   -3.7500   -1.2990    0.0000 C   0  0  0  0  0  0  0  0  0  0  0  0
   -3.7500    1.2990    0.0000 C   0  0  0  0  0  0  0  0  0  0  0  0
   -0.7500    1.2990    0.0000 C   0  0  0  0  0  0  0  0  0  0  0  0
   -1.5000    2.5981    0.0000 C   0  0  0  0  0  0  0  0  0  0  0  0
   -3.0000    2.5981    0.0000 C   0  0  0  0  0  0  0  0  0  0  0  0
   -3.7500    3.8971    0.0000 C   0  0  0  0  0  0  0  0  0  0  0  0
   -3.0000    5.1962    0.0000 O   0  0  0  0  0  0  0  0  0  0  0  0
   -5.2500    3.8971    0.0000 C   0  0  0  0  0  0  0  0  0  0  0  0
   -6.0000    5.1962    0.0000 C   0  0  0  0  0  0  0  0  0  0  0  0
   -5.2500    6.4952    0.0000 O   0  0  0  0  0  0  0  0  0  0  0  0
   -7.5000    5.1962    0.0000 C   0  0  0  0  0  0  0  0  0  0  0  0
   -8.2500    6.4952    0.0000 C   0  0  0  0  0  0  0  0  0  0  0  0
   -7.5000    7.7942    0.0000 O   0  0  0  0  0  0  0  0  0  0  0  0
   -9.7500    6.4952    0.0000 O   0  0  0  0  0  0  0  0  0  0  0  0
    0.7500    1.2990    0.0000 C   0  0  0  0  0  0  0  0  0  0  0  0
    1.5000    2.5981    0.0000 C   0  0  0  0  0  0  0  0  0  0  0  0
    3.0000    2.5981    0.0000 C   0  0  0  0  0  0  0  0  0  0  0  0
    3.7500    3.8971    0.0000 C   0  0  0  0  0  0  0  0  0  0  0  0
    3.0000    5.1962    0.0000 C   0  0  0  0  0  0  0  0  0  0  0  0
    3.7500    6.4952    0.0000 F   0  0  0  0  0  0  0  0  0  0  0  0
    1.5000    5.1962    0.0000 C   0  0  0  0  0  0  0  0  0  0  0  0
    0.7500    3.8971    0.0000 C   0  0  0  0  0  0  0  0  0  0  0  0
    1.5000   -2.5981    0.0000 C   0  0  0  0  0  0  0  0  0  0  0  0
    0.7500   -3.8971    0.0000 C   0  0  0  0  0  0  0  0  0  0  0  0
    3.0000   -2.5981    0.0000 C   0  0  0  0  0  0  0  0  0  0  0  0
  1  2  1  0
  2  3  1  0
  3  4  1  0
  4  5  2  0
  5  6  1  0
  6  7  2  0
  7  8  1  0
  8  9  1  0
  8 10  1  0
  7 11  1  0
 11 12  1  0
 12 13  2  0
 13 14  1  0
 14 15  1  6
 14 16  1  0
 16 17  1  0
 17 18  1  6
 17 19  1  0
 19 20  1  0
 20 21  2  0
 20 22  1  0
 11 23  2  0
 23 24  1  0
 24 25  2  0
 25 26  1  0
 26 27  2  0
 27 28  1  0
 27 29  1  0
 29 30  2  0
  5 31  1  0
 31 32  1  0
 31 33  1  0
 23  4  1  0
 30 24  1  0
M  END
$$$$
789
     RDKit          2D

 19 19  0  0  0  0  0  0  0  0999 V2000
    6.0000   -2.5981    0.0000 C   0  0  0  0  0  0  0  0  0  0  0  0
    5.2500   -1.2990    0.0000 O   0  0  0  0  0  0  0  0  0  0  0  0
    3.7500   -1.2990    0.0000 C   0  0  0  0  0  0  0  0  0  0  0  0
    3.0000    0.0000    0.0000 C   0  0  0  0  0  0  0  0  0  0  0  0
    1.5000    0.0000    0.0000 C   0  0  0  0  0  0  0  0  0  0  0  0
    0.7500   -1.2990    0.0000 C   0  0  0  0  0  0  0  0  0  0  0  0
   -0.7500   -1.2990    0.0000 C   0  0  0  0  0  0  0  0  0  0  0  0
   -1.5000    0.0000    0.0000 C   0  0  0  0  0  0  0  0  0  0  0  0
   -3.0000    0.0000    0.0000 O   0  0  0  0  0  0  0  0  0  0  0  0
   -3.7500    1.2990    0.0000 C   0  0  0  0  0  0  0  0  0  0  0  0
   -5.2500    1.2990    0.0000 C   0  0  0  0  0  0  0  0  0  0  0  0
   -6.0000    0.0000    0.0000 O   0  0  0  0  0  0  0  0  0  0  0  0
   -6.0000    2.5981    0.0000 C   0  0  0  0  0  0  0  0  0  0  0  0
   -7.5000    2.5981    0.0000 N   0  0  0  0  0  0  0  0  0  0  0  0
   -8.2500    3.8971    0.0000 C   0  0  0  0  0  0  0  0  0  0  0  0
   -9.7500    3.8971    0.0000 C   0  0  0  0  0  0  0  0  0  0  0  0
   -7.5000    5.1962    0.0000 C   0  0  0  0  0  0  0  0  0  0  0  0
   -0.7500    1.2990    0.0000 C   0  0  0  0  0  0  0  0  0  0  0  0
    0.7500    1.2990    0.0000 C   0  0  0  0  0  0  0  0  0  0  0  0
  1  2  1  0
  2  3  1  0
  3  4  1  0
  4  5  1  0
  5  6  2  0
  6  7  1  0
  7  8  2  0
  8  9  1  0
  9 10  1  0
 10 11  1  0
 11 12  1  0
 11 13  1  0
 13 14  1  0
 14 15  1  0
 15 16  1  0
 15 17  1  0
  8 18  1  0
 18 19  2  0
 19  5  1  0
M  END
$$$$
674288
     RDKit          2D

 27 26  0  0  0  0  0  0  0  0999 V2000
    6.0000   -2.5981    0.0000 C   0  0  0  0  0  0  0  0  0  0  0  0
    5.2500   -1.2990    0.0000 O   0  0  0  0  0  0  0  0  0  0  0  0
    3.7500   -1.2990    0.0000 C   0  0  0  0  0  0  0  0  0  0  0  0
    3.0000    0.0000    0.0000 C   0  0  0  0  0  0  0  0  0  0  0  0
    1.5000    0.0000    0.0000 C   0  0  0  0  0  0  0  0  0  0  0  0
    0.7500   -1.2990    0.0000 C   0  0  0  0  0  0  0  0  0  0  0  0
   -0.7500   -1.2990    0.0000 C   0  0  0  0  0  0  0  0  0  0  0  0
   -1.5000    0.0000    0.0000 C   0  0  0  0  0  0  0  0  0  0  0  0
   -3.0000    0.0000    0.0000 O   0  0  0  0  0  0  0  0  0  0  0  0
   -3.7500    1.2990    0.0000 C   0  0  0  0  0  0  0  0  0  0  0  0
   -5.2500    1.2990    0.0000 C   0  0  0  0  0  0  0  0  0  0  0  0
   -6.0000    0.0000    0.0000 O   0  0  0  0  0  0  0  0  0  0  0  0
   -6.0000    2.5981    0.0000 C   0  0  0  0  0  0  0  0  0  0  0  0
   -7.5000    2.5981    0.0000 N   0  0  0  0  0  0  0  0  0  0  0  0
   -8.2500    3.8971    0.0000 C   0  0  0  0  0  0  0  0  0  0  0  0
   -9.7500    3.8971    0.0000 C   0  0  0  0  0  0  0  0  0  0  0  0
   -7.5000    5.1962    0.0000 C   0  0  0  0  0  0  0  0  0  0  0  0
   -0.7500    1.2990    0.0000 C   0  0  0  0  0  0  0  0  0  0  0  0
    0.7500    1.2990    0.0000 C   0  0  0  0  0  0  0  0  0  0  0  0
   -2.5981    7.6962    0.0000 O   0  0  0  0  0  0  0  0  0  0  0  0
   -1.2990    8.4462    0.0000 C   0  0  0  0  0  0  0  0  0  0  0  0
   -1.2990    9.9462    0.0000 O   0  0  0  0  0  0  0  0  0  0  0  0
    0.0000    7.6962    0.0000 C   0  0  0  0  0  0  0  0  0  0  0  0
    1.2990    8.4462    0.0000 C   0  0  0  0  0  0  0  0  0  0  0  0
    2.5981    7.6962    0.0000 C   0  0  0  0  0  0  0  0  0  0  0  0
    2.5981    6.1962    0.0000 O   0  0  0  0  0  0  0  0  0  0  0  0
    3.8971    8.4462    0.0000 O   0  0  0  0  0  0  0  0  0  0  0  0
  1  2  1  0
  2  3  1  0
  3  4  1  0
  4  5  1  0
  5  6  2  0
  6  7  1  0
  7  8  2  0
  8  9  1  0
  9 10  1  0
 10 11  1  0
 11 12  1  0
 11 13  1  0
 13 14  1  0
 14 15  1  0
 15 16  1  0
 15 17  1  0
  8 18  1  0
 18 19  2  0
 20 21  1  0
 21 22  2  0
 21 23  1  0
 23 24  1  0
 24 25  1  0
 25 26  2  0
 25 27  1  0
 19  5  1  0
M  END
$$$$
674849
     RDKit          2D

 27 26  0  0  0  0  0  0  0  0999 V2000
    6.0000   -2.5981    0.0000 C   0  0  0  0  0  0  0  0  0  0  0  0
    5.2500   -1.2990    0.0000 O   0  0  0  0  0  0  0  0  0  0  0  0
    3.7500   -1.2990    0.0000 C   0  0  0  0  0  0  0  0  0  0  0  0
    3.0000    0.0000    0.0000 C   0  0  0  0  0  0  0  0  0  0  0  0
    1.5000    0.0000    0.0000 C   0  0  0  0  0  0  0  0  0  0  0  0
    0.7500   -1.2990    0.0000 C   0  0  0  0  0  0  0  0  0  0  0  0
   -0.7500   -1.2990    0.0000 C   0  0  0  0  0  0  0  0  0  0  0  0
   -1.5000    0.0000    0.0000 C   0  0  0  0  0  0  0  0  0  0  0  0
   -3.0000    0.0000    0.0000 O   0  0  0  0  0  0  0  0  0  0  0  0
   -3.7500    1.2990    0.0000 C   0  0  0  0  0  0  0  0  0  0  0  0
   -5.2500    1.2990    0.0000 C   0  0  0  0  0  0  0  0  0  0  0  0
   -6.0000    0.0000    0.0000 O   0  0  0  0  0  0  0  0  0  0  0  0
   -6.0000    2.5981    0.0000 C   0  0  0  0  0  0  0  0  0  0  0  0
   -7.5000    2.5981    0.0000 N   0  0  0  0  0  0  0  0  0  0  0  0
   -8.2500    3.8971    0.0000 C   0  0  0  0  0  0  0  0  0  0  0  0
   -9.7500    3.8971    0.0000 C   0  0  0  0  0  0  0  0  0  0  0  0
   -7.5000    5.1962    0.0000 C   0  0  0  0  0  0  0  0  0  0  0  0
   -0.7500    1.2990    0.0000 C   0  0  0  0  0  0  0  0  0  0  0  0
    0.7500    1.2990    0.0000 C   0  0  0  0  0  0  0  0  0  0  0  0
   -2.2500    7.4952    0.0000 O   0  0  0  0  0  0  0  0  0  0  0  0
   -0.7500    7.4952    0.0000 C   0  0  0  0  0  0  0  0  0  0  0  0
    0.0000    6.1962    0.0000 O   0  0  0  0  0  0  0  0  0  0  0  0
    0.0000    8.7942    0.0000 C   0  0  0  0  0  0  0  0  0  0  0  0
    1.5000    8.7942    0.0000 C   0  0  0  0  0  0  0  0  0  0  0  0
    2.2500   10.0933    0.0000 C   0  0  0  0  0  0  0  0  0  0  0  0
    1.5000   11.3923    0.0000 O   0  0  0  0  0  0  0  0  0  0  0  0
    3.7500   10.0933    0.0000 O   0  0  0  0  0  0  0  0  0  0  0  0
  1  2  1  0
  2  3  1  0
  3  4  1  0
  4  5  1  0
  5  6  2  0
  6  7  1  0
  7  8  2  0
  8  9  1  0
  9 10  1  0
 10 11  1  0
 11 12  1  0
 11 13  1  0
 13 14  1  0
 14 15  1  0
 15 16  1  0
 15 17  1  0
  8 18  1  0
 18 19  2  0
 20 21  1  0
 21 22  2  0
 21 23  1  0
 23 24  2  0
 24 25  1  0
 25 26  2  0
 25 27  1  0
 19  5  1  0
M  END
$$$$
705951
     RDKit          2D

 29 28  0  0  0  0  0  0  0  0999 V2000
    6.0000   -2.5981    0.0000 C   0  0  0  0  0  0  0  0  0  0  0  0
    5.2500   -1.2990    0.0000 O   0  0  0  0  0  0  0  0  0  0  0  0
    3.7500   -1.2990    0.0000 C   0  0  0  0  0  0  0  0  0  0  0  0
    3.0000    0.0000    0.0000 C   0  0  0  0  0  0  0  0  0  0  0  0
    1.5000    0.0000    0.0000 C   0  0  0  0  0  0  0  0  0  0  0  0
    0.7500   -1.2990    0.0000 C   0  0  0  0  0  0  0  0  0  0  0  0
   -0.7500   -1.2990    0.0000 C   0  0  0  0  0  0  0  0  0  0  0  0
   -1.5000    0.0000    0.0000 C   0  0  0  0  0  0  0  0  0  0  0  0
   -3.0000    0.0000    0.0000 O   0  0  0  0  0  0  0  0  0  0  0  0
   -3.7500    1.2990    0.0000 C   0  0  0  0  0  0  0  0  0  0  0  0
   -5.2500    1.2990    0.0000 C   0  0  0  0  0  0  0  0  0  0  0  0
   -6.0000    0.0000    0.0000 O   0  0  0  0  0  0  0  0  0  0  0  0
   -6.0000    2.5981    0.0000 C   0  0  0  0  0  0  0  0  0  0  0  0
   -7.5000    2.5981    0.0000 N   0  0  0  0  0  0  0  0  0  0  0  0
   -8.2500    3.8971    0.0000 C   0  0  0  0  0  0  0  0  0  0  0  0
   -9.7500    3.8971    0.0000 C   0  0  0  0  0  0  0  0  0  0  0  0
   -7.5000    5.1962    0.0000 C   0  0  0  0  0  0  0  0  0  0  0  0
   -0.7500    1.2990    0.0000 C   0  0  0  0  0  0  0  0  0  0  0  0
    0.7500    1.2990    0.0000 C   0  0  0  0  0  0  0  0  0  0  0  0
   -0.0000    6.1962    0.0000 O   0  0  0  0  0  0  0  0  0  0  0  0
    0.0000    7.6962    0.0000 C   0  0  0  0  0  0  0  0  0  0  0  0
    1.2990    8.4462    0.0000 C   0  0  0  0  0  0  0  0  0  0  0  0
    1.2990    9.9462    0.0000 O   0  0  0  0  0  0  0  0  0  0  0  0
    2.5981    7.6962    0.0000 C   0  0  0  0  0  0  0  0  0  0  0  0
    2.5981    6.1962    0.0000 O   0  0  0  0  0  0  0  0  0  0  0  0
    3.8971    8.4462    0.0000 O   0  0  0  0  0  0  0  0  0  0  0  0
   -1.2990    8.4462    0.0000 C   0  0  0  0  0  0  0  0  0  0  0  0
   -1.2990    9.9462    0.0000 O   0  0  0  0  0  0  0  0  0  0  0  0
   -2.5981    7.6962    0.0000 O   0  0  0  0  0  0  0  0  0  0  0  0
  1  2  1  0
  2  3  1  0
  3  4  1  0
  4  5  1  0
  5  6  2  0
  6  7  1  0
  7  8  2  0
  8  9  1  0
  9 10  1  0
 10 11  1  0
 11 12  1  0
 11 13  1  0
 13 14  1  0
 14 15  1  0
 15 16  1  0
 15 17  1  0
  8 18  1  0
 18 19  2  0
 20 21  1  0
 21 22  1  0
 22 23  1  0
 22 24  1  0
 24 25  2  0
 24 26  1  0
 21 27  1  0
 27 28  2  0
 27 29  1  0
 19  5  1  0
M  END
$$$$
54722
     RDKit          2D

 22 22  0  0  0  0  0  0  0  0999 V2000
    9.7500    3.8971    0.0000 C   0  0  0  0  0  0  0  0  0  0  0  0
    8.2500    3.8971    0.0000 O   0  0  0  0  0  0  0  0  0  0  0  0
    7.5000    2.5981    0.0000 C   0  0  0  0  0  0  0  0  0  0  0  0
    6.0000    2.5981    0.0000 C   0  0  0  0  0  0  0  0  0  0  0  0
    5.2500    1.2990    0.0000 C   0  0  0  0  0  0  0  0  0  0  0  0
    3.7500    1.2990    0.0000 C   0  0  0  0  0  0  0  0  0  0  0  0
    3.0000    0.0000    0.0000 C   0  0  0  0  0  0  0  0  0  0  0  0
    3.7500   -1.2990    0.0000 N   0  0  0  0  0  0  0  0  0  0  0  0
    5.2500   -1.2990    0.0000 O   0  0  0  0  0  0  0  0  0  0  0  0
    6.0000   -2.5981    0.0000 C   0  0  0  0  0  0  0  0  0  0  0  0
    7.5000   -2.5981    0.0000 C   0  0  0  0  0  0  0  0  0  0  0  0
    8.2500   -3.8971    0.0000 N   0  0  0  0  0  0  0  0  0  0  0  0
    1.5000    0.0000    0.0000 C   0  0  0  0  0  0  0  0  0  0  0  0
    0.7500   -1.2990    0.0000 C   0  0  0  0  0  0  0  0  0  0  0  0
   -0.7500   -1.2990    0.0000 C   0  0  0  0  0  0  0  0  0  0  0  0
   -1.5000    0.0000    0.0000 C   0  0  0  0  0  0  0  0  0  0  0  0
   -0.7500    1.2990    0.0000 C   0  0  0  0  0  0  0  0  0  0  0  0
    0.7500    1.2990    0.0000 C   0  0  0  0  0  0  0  0  0  0  0  0
   -3.0000    0.0000    0.0000 C   0  0  0  0  0  0  0  0  0  0  0  0
   -4.5000    0.0000    0.0000 F   0  0  0  0  0  0  0  0  0  0  0  0
   -3.0000    1.5000    0.0000 F   0  0  0  0  0  0  0  0  0  0  0  0
   -3.0000   -1.5000    0.0000 F   0  0  0  0  0  0  0  0  0  0  0  0
  1  2  1  0
  2  3  1  0
  3  4  1  0
  4  5  1  0
  5  6  1  0
  6  7  1  0
  7  8  2  0
  8  9  1  0
  9 10  1  0
 10 11  1  0
 11 12  1  0
  7 13  1  0
 13 14  2  0
 14 15  1  0
 15 16  2  0
 16 17  1  0
 17 18  2  0
 16 19  1  0
 19 20  1  0
 19 21  1  0
 19 22  1  0
 18 13  1  0
M  END
$$$$
345595
     RDKit          2D

 30 29  0  0  0  0  0  0  0  0999 V2000
    9.7500    3.8971    0.0000 C   0  0  0  0  0  0  0  0  0  0  0  0
    8.2500    3.8971    0.0000 O   0  0  0  0  0  0  0  0  0  0  0  0
    7.5000    2.5981    0.0000 C   0  0  0  0  0  0  0  0  0  0  0  0
    6.0000    2.5981    0.0000 C   0  0  0  0  0  0  0  0  0  0  0  0
    5.2500    1.2990    0.0000 C   0  0  0  0  0  0  0  0  0  0  0  0
    3.7500    1.2990    0.0000 C   0  0  0  0  0  0  0  0  0  0  0  0
    3.0000    0.0000    0.0000 C   0  0  0  0  0  0  0  0  0  0  0  0
    3.7500   -1.2990    0.0000 N   0  0  0  0  0  0  0  0  0  0  0  0
    5.2500   -1.2990    0.0000 O   0  0  0  0  0  0  0  0  0  0  0  0
    6.0000   -2.5981    0.0000 C   0  0  0  0  0  0  0  0  0  0  0  0
    7.5000   -2.5981    0.0000 C   0  0  0  0  0  0  0  0  0  0  0  0
    8.2500   -3.8971    0.0000 N   0  0  0  0  0  0  0  0  0  0  0  0
    1.5000    0.0000    0.0000 C   0  0  0  0  0  0  0  0  0  0  0  0
    0.7500   -1.2990    0.0000 C   0  0  0  0  0  0  0  0  0  0  0  0
   -0.7500   -1.2990    0.0000 C   0  0  0  0  0  0  0  0  0  0  0  0
   -1.5000    0.0000    0.0000 C   0  0  0  0  0  0  0  0  0  0  0  0
   -0.7500    1.2990    0.0000 C   0  0  0  0  0  0  0  0  0  0  0  0
    0.7500    1.2990    0.0000 C   0  0  0  0  0  0  0  0  0  0  0  0
   -3.0000    0.0000    0.0000 C   0  0  0  0  0  0  0  0  0  0  0  0
   -4.5000    0.0000    0.0000 F   0  0  0  0  0  0  0  0  0  0  0  0
   -3.0000    1.5000    0.0000 F   0  0  0  0  0  0  0  0  0  0  0  0
   -3.0000   -1.5000    0.0000 F   0  0  0  0  0  0  0  0  0  0  0  0
   -2.2500    6.1962    0.0000 O   0  0  0  0  0  0  0  0  0  0  0  0
   -0.7500    6.1962    0.0000 C   0  0  0  0  0  0  0  0  0  0  0  0
    0.0000    4.8971    0.0000 O   0  0  0  0  0  0  0  0  0  0  0  0
    0.0000    7.4952    0.0000 C   0  0  0  0  0  0  0  0  0  0  0  0
    1.5000    7.4952    0.0000 C   0  0  0  0  0  0  0  0  0  0  0  0
    2.2500    6.1962    0.0000 C   0  0  0  0  0  0  0  0  0  0  0  0
    1.5000    4.8971    0.0000 O   0  0  0  0  0  0  0  0  0  0  0  0
    3.7500    6.1962    0.0000 O   0  0  0  0  0  0  0  0  0  0  0  0
  1  2  1  0
  2  3  1  0
  3  4  1  0
  4  5  1  0
  5  6  1  0
  6  7  1  0
  7  8  2  0
  8  9  1  0
  9 10  1  0
 10 11  1  0
 11 12  1  0
  7 13  1  0
 13 14  2  0
 14 15  1  0
 15 16  2  0
 16 17  1  0
 17 18  2  0
 16 19  1  0
 19 20  1  0
 19 21  1  0
 19 22  1  0
 23 24  1  0
 24 25  2  0
 24 26  1  0
 26 27  2  0
 27 28  1  0
 28 29  2  0
 28 30  1  0
 18 13  1  0
M  END
$$$$
480746
     RDKit          2D

 39 39  0  0  0  0  0  0  0  0999 V2000
    8.2500   -3.8971    0.0000 C   0  0  0  0  0  0  0  0  0  0  0  0
    7.5000   -2.5981    0.0000 O   0  0  0  0  0  0  0  0  0  0  0  0
    6.0000   -2.5981    0.0000 C   0  0  0  0  0  0  0  0  0  0  0  0
    5.2500   -1.2990    0.0000 C   0  0  0  0  0  0  0  0  0  0  0  0
    3.7500   -1.2990    0.0000 C   0  0  0  0  0  0  0  0  0  0  0  0
    3.0000    0.0000    0.0000 O   0  0  0  0  0  0  0  0  0  0  0  0
    1.5000    0.0000    0.0000 C   0  0  0  0  0  0  0  0  0  0  0  0
    0.7500   -1.2990    0.0000 C   0  0  0  0  0  0  0  0  0  0  0  0
   -0.7500   -1.2990    0.0000 C   0  0  0  0  0  0  0  0  0  0  0  0
   -1.5000   -2.5981    0.0000 C   0  0  0  0  0  0  0  0  0  0  0  0
   -3.0000   -2.5981    0.0000 C   0  0  0  0  0  0  0  0  0  0  0  0
   -3.7500   -3.8971    0.0000 C   0  0  0  0  0  0  0  0  0  0  0  0
   -5.2500   -3.8971    0.0000 C   0  0  0  0  0  0  0  0  0  0  0  0
   -6.0000   -2.5981    0.0000 N   0  0  0  0  0  0  0  0  0  0  0  0
   -6.0000   -5.1962    0.0000 C   0  0  0  0  0  0  0  0  0  0  0  0
   -5.2500   -6.4952    0.0000 O   0  0  0  0  0  0  0  0  0  0  0  0
   -7.5000   -5.1962    0.0000 C   0  0  0  0  0  0  0  0  0  0  0  0
   -8.2500   -6.4952    0.0000 C   0  0  0  0  0  0  0  0  0  0  0  0
   -9.7500   -6.4952    0.0000 C   0  0  0  0  0  0  0  0  0  0  0  0
  -10.5000   -7.7942    0.0000 C   0  0  0  0  0  0  0  0  0  0  0  0
  -10.5000   -5.1962    0.0000 C   0  0  0  0  0  0  0  0  0  0  0  0
   -7.5000   -7.7942    0.0000 C   0  0  0  0  0  0  0  0  0  0  0  0
   -6.0000   -7.7942    0.0000 O   0  0  0  0  0  0  0  0  0  0  0  0
   -8.2500   -9.0933    0.0000 N   0  0  0  0  0  0  0  0  0  0  0  0
   -7.5000  -10.3923    0.0000 C   0  0  0  0  0  0  0  0  0  0  0  0
   -8.2500  -11.6913    0.0000 C   0  0  0  0  0  0  0  0  0  0  0  0
   -9.5490  -10.9413    0.0000 C   0  0  0  0  0  0  0  0  0  0  0  0
   -6.9510  -12.4413    0.0000 C   0  0  0  0  0  0  0  0  0  0  0  0
   -9.0000  -12.9904    0.0000 C   0  0  0  0  0  0  0  0  0  0  0  0
   -8.2500  -14.2894    0.0000 O   0  0  0  0  0  0  0  0  0  0  0  0
  -10.5000  -12.9904    0.0000 N   0  0  0  0  0  0  0  0  0  0  0  0
   -3.7500   -1.2990    0.0000 C   0  0  0  0  0  0  0  0  0  0  0  0
   -5.2500   -1.2990    0.0000 C   0  0  0  0  0  0  0  0  0  0  0  0
   -3.0000    0.0000    0.0000 C   0  0  0  0  0  0  0  0  0  0  0  0
   -1.5000    0.0000    0.0000 C   0  0  0  0  0  0  0  0  0  0  0  0
   -0.7500    1.2990    0.0000 C   0  0  0  0  0  0  0  0  0  0  0  0
    0.7500    1.2990    0.0000 C   0  0  0  0  0  0  0  0  0  0  0  0
    1.5000    2.5981    0.0000 O   0  0  0  0  0  0  0  0  0  0  0  0
    3.0000    2.5981    0.0000 C   0  0  0  0  0  0  0  0  0  0  0  0
  1  2  1  0
  2  3  1  0
  3  4  1  0
  4  5  1  0
  5  6  1  0
  6  7  1  0
  7  8  2  0
  8  9  1  0
  9 10  1  0
 11 10  1  1
 11 12  1  0
 12 13  1  0
 13 14  1  1
 13 15  1  0
 15 16  1  1
 15 17  1  0
 18 17  1  6
 18 19  1  0
 19 20  1  0
 19 21  1  0
 18 22  1  0
 22 23  2  0
 22 24  1  0
 24 25  1  0
 25 26  1  0
 26 27  1  0
 26 28  1  0
 26 29  1  0
 29 30  2  0
 29 31  1  0
 11 32  1  0
 32 33  1  0
 32 34  1  0
  9 35  2  0
 35 36  1  0
 36 37  2  0
 37 38  1  0
 38 39  1  0
 37  7  1  0
M  END
$$$$
1926908
     RDKit          2D

 86 85  0  0  0  0  0  0  0  0999 V2000
    8.2500   -3.8971    0.0000 C   0  0  0  0  0  0  0  0  0  0  0  0
    7.5000   -2.5981    0.0000 O   0  0  0  0  0  0  0  0  0  0  0  0
    6.0000   -2.5981    0.0000 C   0  0  0  0  0  0  0  0  0  0  0  0
    5.2500   -1.2990    0.0000 C   0  0  0  0  0  0  0  0  0  0  0  0
    3.7500   -1.2990    0.0000 C   0  0  0  0  0  0  0  0  0  0  0  0
    3.0000    0.0000    0.0000 O   0  0  0  0  0  0  0  0  0  0  0  0
    1.5000    0.0000    0.0000 C   0  0  0  0  0  0  0  0  0  0  0  0
    0.7500   -1.2990    0.0000 C   0  0  0  0  0  0  0  0  0  0  0  0
   -0.7500   -1.2990    0.0000 C   0  0  0  0  0  0  0  0  0  0  0  0
   -1.5000   -2.5981    0.0000 C   0  0  0  0  0  0  0  0  0  0  0  0
   -3.0000   -2.5981    0.0000 C   0  0  0  0  0  0  0  0  0  0  0  0
   -3.7500   -3.8971    0.0000 C   0  0  0  0  0  0  0  0  0  0  0  0
   -5.2500   -3.8971    0.0000 C   0  0  0  0  0  0  0  0  0  0  0  0
   -6.0000   -2.5981    0.0000 N   0  0  0  0  0  0  0  0  0  0  0  0
   -6.0000   -5.1962    0.0000 C   0  0  0  0  0  0  0  0  0  0  0  0
   -5.2500   -6.4952    0.0000 O   0  0  0  0  0  0  0  0  0  0  0  0
   -7.5000   -5.1962    0.0000 C   0  0  0  0  0  0  0  0  0  0  0  0
   -8.2500   -6.4952    0.0000 C   0  0  0  0  0  0  0  0  0  0  0  0
   -9.7500   -6.4952    0.0000 C   0  0  0  0  0  0  0  0  0  0  0  0
  -10.5000   -7.7942    0.0000 C   0  0  0  0  0  0  0  0  0  0  0  0
  -10.5000   -5.1962    0.0000 C   0  0  0  0  0  0  0  0  0  0  0  0
   -7.5000   -7.7942    0.0000 C   0  0  0  0  0  0  0  0  0  0  0  0
   -6.0000   -7.7942    0.0000 O   0  0  0  0  0  0  0  0  0  0  0  0
   -8.2500   -9.0933    0.0000 N   0  0  0  0  0  0  0  0  0  0  0  0
   -7.5000  -10.3923    0.0000 C   0  0  0  0  0  0  0  0  0  0  0  0
   -8.2500  -11.6913    0.0000 C   0  0  0  0  0  0  0  0  0  0  0  0
   -9.5490  -10.9413    0.0000 C   0  0  0  0  0  0  0  0  0  0  0  0
   -6.9510  -12.4413    0.0000 C   0  0  0  0  0  0  0  0  0  0  0  0
   -9.0000  -12.9904    0.0000 C   0  0  0  0  0  0  0  0  0  0  0  0
   -8.2500  -14.2894    0.0000 O   0  0  0  0  0  0  0  0  0  0  0  0
  -10.5000  -12.9904    0.0000 N   0  0  0  0  0  0  0  0  0  0  0  0
   -3.7500   -1.2990    0.0000 C   0  0  0  0  0  0  0  0  0  0  0  0
   -5.2500   -1.2990    0.0000 C   0  0  0  0  0  0  0  0  0  0  0  0
   -3.0000    0.0000    0.0000 C   0  0  0  0  0  0  0  0  0  0  0  0
   -1.5000    0.0000    0.0000 C   0  0  0  0  0  0  0  0  0  0  0  0
   -0.7500    1.2990    0.0000 C   0  0  0  0  0  0  0  0  0  0  0  0
    0.7500    1.2990    0.0000 C   0  0  0  0  0  0  0  0  0  0  0  0
    1.5000    2.5981    0.0000 O   0  0  0  0  0  0  0  0  0  0  0  0
    3.0000    2.5981    0.0000 C   0  0  0  0  0  0  0  0  0  0  0  0
    8.2500   13.9904    0.0000 C   0  0  0  0  0  0  0  0  0  0  0  0
    7.5000   15.2894    0.0000 O   0  0  0  0  0  0  0  0  0  0  0  0
    6.0000   15.2894    0.0000 C   0  0  0  0  0  0  0  0  0  0  0  0
    5.2500   16.5885    0.0000 C   0  0  0  0  0  0  0  0  0  0  0  0
    3.7500   16.5885    0.0000 C   0  0  0  0  0  0  0  0  0  0  0  0
    3.0000   17.8875    0.0000 O   0  0  0  0  0  0  0  0  0  0  0  0
    1.5000   17.8875    0.0000 C   0  0  0  0  0  0  0  0  0  0  0  0
    0.7500   16.5885    0.0000 C   0  0  0  0  0  0  0  0  0  0  0  0
   -0.7500   16.5885    0.0000 C   0  0  0  0  0  0  0  0  0  0  0  0
   -1.5000   15.2894    0.0000 C   0  0  0  0  0  0  0  0  0  0  0  0
   -3.0000   15.2894    0.0000 C   0  0  0  0  0  0  0  0  0  0  0  0
   -3.7500   13.9904    0.0000 C   0  0  0  0  0  0  0  0  0  0  0  0
   -5.2500   13.9904    0.0000 C   0  0  0  0  0  0  0  0  0  0  0  0
   -6.0000   15.2894    0.0000 N   0  0  0  0  0  0  0  0  0  0  0  0
   -6.0000   12.6913    0.0000 C   0  0  0  0  0  0  0  0  0  0  0  0
   -5.2500   11.3923    0.0000 O   0  0  0  0  0  0  0  0  0  0  0  0
   -7.5000   12.6913    0.0000 C   0  0  0  0  0  0  0  0  0  0  0  0
   -8.2500   11.3923    0.0000 C   0  0  0  0  0  0  0  0  0  0  0  0
   -9.7500   11.3923    0.0000 C   0  0  0  0  0  0  0  0  0  0  0  0
  -10.5000   10.0933    0.0000 C   0  0  0  0  0  0  0  0  0  0  0  0
  -10.5000   12.6913    0.0000 C   0  0  0  0  0  0  0  0  0  0  0  0
   -7.5000   10.0933    0.0000 C   0  0  0  0  0  0  0  0  0  0  0  0
   -6.0000   10.0933    0.0000 O   0  0  0  0  0  0  0  0  0  0  0  0
   -8.2500    8.7942    0.0000 N   0  0  0  0  0  0  0  0  0  0  0  0
   -7.5000    7.4952    0.0000 C   0  0  0  0  0  0  0  0  0  0  0  0
   -8.2500    6.1962    0.0000 C   0  0  0  0  0  0  0  0  0  0  0  0
   -9.5490    6.9462    0.0000 C   0  0  0  0  0  0  0  0  0  0  0  0
   -6.9510    5.4462    0.0000 C   0  0  0  0  0  0  0  0  0  0  0  0
   -9.0000    4.8971    0.0000 C   0  0  0  0  0  0  0  0  0  0  0  0
   -8.2500    3.5981    0.0000 O   0  0  0  0  0  0  0  0  0  0  0  0
  -10.5000    4.8971    0.0000 N   0  0  0  0  0  0  0  0  0  0  0  0
   -3.7500   16.5885    0.0000 C   0  0  0  0  0  0  0  0  0  0  0  0
   -5.2500   16.5885    0.0000 C   0  0  0  0  0  0  0  0  0  0  0  0
   -3.0000   17.8875    0.0000 C   0  0  0  0  0  0  0  0  0  0  0  0
   -1.5000   17.8875    0.0000 C   0  0  0  0  0  0  0  0  0  0  0  0
   -0.7500   19.1865    0.0000 C   0  0  0  0  0  0  0  0  0  0  0  0
    0.7500   19.1865    0.0000 C   0  0  0  0  0  0  0  0  0  0  0  0
    1.5000   20.4856    0.0000 O   0  0  0  0  0  0  0  0  0  0  0  0
    3.0000   20.4856    0.0000 C   0  0  0  0  0  0  0  0  0  0  0  0
    9.2500   -1.2990    0.0000 O   0  0  0  0  0  0  0  0  0  0  0  0
   10.7500   -1.2990    0.0000 C   0  0  0  0  0  0  0  0  0  0  0  0
   11.5000   -2.5981    0.0000 O   0  0  0  0  0  0  0  0  0  0  0  0
   11.5000    0.0000    0.0000 C   0  0  0  0  0  0  0  0  0  0  0  0
   13.0000    0.0000    0.0000 C   0  0  0  0  0  0  0  0  0  0  0  0
   13.7500    1.2990    0.0000 C   0  0  0  0  0  0  0  0  0  0  0  0
   13.0000    2.5981    0.0000 O   0  0  0  0  0  0  0  0  0  0  0  0
   15.2500    1.2990    0.0000 O   0  0  0  0  0  0  0  0  0  0  0  0
  1  2  1  0
  2  3  1  0
  3  4  1  0
  4  5  1  0
  5  6  1  0
  6  7  1  0
  7  8  2  0
  8  9  1  0
  9 10  1  0
 11 10  1  1
 11 12  1  0
 12 13  1  0
 13 14  1  1
 13 15  1  0
 15 16  1  1
 15 17  1  0
 18 17  1  6
 18 19  1  0
 19 20  1  0
 19 21  1  0
 18 22  1  0
 22 23  2  0
 22 24  1  0
 24 25  1  0
 25 26  1  0
 26 27  1  0
 26 28  1  0
 26 29  1  0
 29 30  2  0
 29 31  1  0
 11 32  1  0
 32 33  1  0
 32 34  1  0
  9 35  2  0
 35 36  1  0
 36 37  2  0
 37 38  1  0
 38 39  1  0
 40 41  1  0
 41 42  1  0
 42 43  1  0
 43 44  1  0
 44 45  1  0
 45 46  1  0
 46 47  2  0
 47 48  1  0
 48 49  1  0
 50 49  1  1
 50 51  1  0
 51 52  1  0
 52 53  1  1
 52 54  1  0
 54 55  1  1
 54 56  1  0
 57 56  1  6
 57 58  1  0
 58 59  1  0
 58 60  1  0
 57 61  1  0
 61 62  2  0
 61 63  1  0
 63 64  1  0
 64 65  1  0
 65 66  1  0
 65 67  1  0
 65 68  1  0
 68 69  2  0
 68 70  1  0
 50 71  1  0
 71 72  1  0
 71 73  1  0
 48 74  2  0
 74 75  1  0
 75 76  2  0
 76 77  1  0
 77 78  1  0
 79 80  1  0
 80 81  2  0
 80 82  1  0
 82 83  2  0
 83 84  1  0
 84 85  2  0
 84 86  1  0
 37  7  1  0
 76 46  1  0
M  END
$$$$
222203
     RDKit          2D

 25 27  0  0  0  0  0  0  0  0999 V2000
    3.8971  -16.3573    0.0000 C   0  0  0  0  0  0  0  0  0  0  0  0
    3.8971  -14.8573    0.0000 O   0  0  0  0  0  0  0  0  0  0  0  0
    2.5981  -14.1073    0.0000 C   0  0  0  0  0  0  0  0  0  0  0  0
    2.5981  -12.6073    0.0000 C   0  0  0  0  0  0  0  0  0  0  0  0
    1.2990  -11.8573    0.0000 C   0  0  0  0  0  0  0  0  0  0  0  0
    1.2990  -10.3573    0.0000 O   0  0  0  0  0  0  0  0  0  0  0  0
   -0.0000   -9.6073    0.0000 C   0  0  0  0  0  0  0  0  0  0  0  0
   -1.2990  -10.3573    0.0000 C   0  0  0  0  0  0  0  0  0  0  0  0
   -2.5981   -9.6073    0.0000 C   0  0  0  0  0  0  0  0  0  0  0  0
   -2.5981   -8.1073    0.0000 N   0  0  0  0  0  0  0  0  0  0  0  0
   -1.2990   -7.3573    0.0000 C   0  0  0  0  0  0  0  0  0  0  0  0
   -1.2990   -5.8573    0.0000 C   0  0  0  0  0  0  0  0  0  0  0  0
   -0.0000   -5.1073    0.0000 S   0  0  0  0  0  3  0  0  0  0  0  0
    1.2990   -5.8573    0.0000 O   0  0  0  0  0  1  0  0  0  0  0  0
   -0.0000   -3.6073    0.0000 C   0  0  0  0  0  0  0  0  0  0  0  0
    1.2135   -2.7256    0.0000 N   0  0  0  0  0  0  0  0  0  0  0  0
    0.7500   -1.2990    0.0000 C   0  0  0  0  0  0  0  0  0  0  0  0
    1.5000    0.0000    0.0000 C   0  0  0  0  0  0  0  0  0  0  0  0
    0.7500    1.2990    0.0000 C   0  0  0  0  0  0  0  0  0  0  0  0
   -0.7500    1.2990    0.0000 C   0  0  0  0  0  0  0  0  0  0  0  0
   -1.5000    0.0000    0.0000 C   0  0  0  0  0  0  0  0  0  0  0  0
   -0.7500   -1.2990    0.0000 C   0  0  0  0  0  0  0  0  0  0  0  0
   -1.2135   -2.7256    0.0000 N   0  0  0  0  0  0  0  0  0  0  0  0
   -0.0000   -8.1073    0.0000 C   0  0  0  0  0  0  0  0  0  0  0  0
    1.2990   -7.3573    0.0000 C   0  0  0  0  0  0  0  0  0  0  0  0
  1  2  1  0
  2  3  1  0
  3  4  1  0
  4  5  1  0
  5  6  1  0
  6  7  1  0
  7  8  2  0
  8  9  1  0
  9 10  2  0
 10 11  1  0
 11 12  1  0
 12 13  1  0
 13 14  1  0
 13 15  1  0
 15 16  2  0
 16 17  1  0
 17 18  2  0
 18 19  1  0
 19 20  2  0
 20 21  1  0
 21 22  2  0
 22 23  1  0
 11 24  2  0
 24 25  1  0
 24  7  1  0
 23 15  1  0
 22 17  1  0
M  CHG  2  13   1  14  -1
M  END
$$$$
365248
     RDKit          2D

 30 31  0  0  0  0  0  0  0  0999 V2000
    8.2500   -3.8971    0.0000 C   0  0  0  0  0  0  0  0  0  0  0  0
    7.5000   -2.5981    0.0000 O   0  0  0  0  0  0  0  0  0  0  0  0
    6.0000   -2.5981    0.0000 C   0  0  0  0  0  0  0  0  0  0  0  0
    5.2500   -1.2990    0.0000 C   0  0  0  0  0  0  0  0  0  0  0  0
    3.7500   -1.2990    0.0000 O   0  0  0  0  0  0  0  0  0  0  0  0
    3.0000    0.0000    0.0000 C   0  0  0  0  0  0  0  0  0  0  0  0
    3.7500    1.2990    0.0000 O   0  0  0  0  0  0  0  0  0  0  0  0
    1.5000    0.0000    0.0000 C   0  0  0  0  0  0  0  0  0  0  0  0
    0.7500   -1.2990    0.0000 C   0  0  0  0  0  0  0  0  0  0  0  0
    1.5000   -2.5981    0.0000 C   0  0  0  0  0  0  0  0  0  0  0  0
   -0.7500   -1.2990    0.0000 N   0  0  0  0  0  0  0  0  0  0  0  0
   -1.5000    0.0000    0.0000 C   0  0  0  0  0  0  0  0  0  0  0  0
   -0.7500    1.2990    0.0000 C   0  0  0  0  0  0  0  0  0  0  0  0
    0.7500    1.2990    0.0000 C   0  0  0  0  0  0  0  0  0  0  0  0
    1.5000    2.5981    0.0000 C   0  0  0  0  0  0  0  0  0  0  0  0
    3.0000    2.5981    0.0000 C   0  0  0  0  0  0  0  0  0  0  0  0
    3.7500    3.8971    0.0000 C   0  0  0  0  0  0  0  0  0  0  0  0
    3.0000    5.1962    0.0000 C   0  0  0  0  0  0  0  0  0  0  0  0
    1.5000    5.1962    0.0000 C   0  0  0  0  0  0  0  0  0  0  0  0
    0.7500    3.8971    0.0000 C   0  0  0  0  0  0  0  0  0  0  0  0
    0.7500    6.4952    0.0000 N   0  0  0  0  0  4  0  0  0  0  0  0
   -0.7500    6.4952    0.0000 O   0  0  0  0  0  0  0  0  0  0  0  0
    1.5000    7.7942    0.0000 O   0  0  0  0  0  1  0  0  0  0  0  0
   -1.5000    2.5981    0.0000 C   0  0  0  0  0  0  0  0  0  0  0  0
   -0.7500    3.8971    0.0000 O   0  0  0  0  0  0  0  0  0  0  0  0
   -3.0000    2.5981    0.0000 O   0  0  0  0  0  0  0  0  0  0  0  0
   -3.7500    3.8971    0.0000 C   0  0  0  0  0  0  0  0  0  0  0  0
   -5.2500    3.8971    0.0000 C   0  0  0  0  0  0  0  0  0  0  0  0
   -3.0000    5.1962    0.0000 C   0  0  0  0  0  0  0  0  0  0  0  0
   -3.0000    0.0000    0.0000 C   0  0  0  0  0  0  0  0  0  0  0  0
  1  2  1  0
  2  3  1  0
  3  4  1  0
  4  5  1  0
  5  6  1  0
  6  7  2  0
  6  8  1  0
  8  9  2  0
  9 10  1  0
  9 11  1  0
 11 12  1  0
 12 13  2  0
 13 14  1  0
 14 15  1  0
 15 16  2  0
 16 17  1  0
 17 18  2  0
 18 19  1  0
 19 20  2  0
 19 21  1  0
 21 22  2  0
 21 23  1  0
 13 24  1  0
 24 25  2  0
 24 26  1  0
 26 27  1  0
 27 28  1  0
 27 29  1  0
 12 30  1  0
 14  8  1  0
 20 15  1  0
M  CHG  2  21   1  23  -1
M  END
$$$$
14785
     RDKit          2D

 29 31  0  0  0  0  0  0  0  0999 V2000
    6.0000   -7.7942    0.0000 C   0  0  0  0  0  0  0  0  0  0  0  0
    5.2500   -6.4952    0.0000 O   0  0  0  0  0  0  0  0  0  0  0  0
    3.7500   -6.4952    0.0000 C   0  0  0  0  0  0  0  0  0  0  0  0
    3.0000   -5.1962    0.0000 C   0  0  0  0  0  0  0  0  0  0  0  0
    1.5000   -5.1962    0.0000 O   0  0  0  0  0  0  0  0  0  0  0  0
    0.7500   -3.8971    0.0000 C   0  0  0  0  0  0  0  0  0  0  0  0
    1.5000   -2.5981    0.0000 C   0  0  0  0  0  0  0  0  0  0  0  0
    0.7500   -1.2990    0.0000 C   0  0  0  0  0  0  0  0  0  0  0  0
    1.5000    0.0000    0.0000 N   0  0  0  0  0  0  0  0  0  0  0  0
    0.7500    1.2990    0.0000 C   0  0  0  0  0  0  0  0  0  0  0  0
   -0.7500    1.2990    0.0000 N   0  0  0  0  0  0  0  0  0  0  0  0
   -1.5000    0.0000    0.0000 C   0  0  0  0  0  0  0  0  0  0  0  0
   -3.0000    0.0000    0.0000 N   0  0  0  0  0  0  0  0  0  0  0  0
   -3.7500    1.2990    0.0000 C   0  0  0  0  0  0  0  0  0  0  0  0
   -3.0000    2.5981    0.0000 C   0  0  0  0  0  0  0  0  0  0  0  0
   -3.7500    3.8971    0.0000 C   0  0  0  0  0  0  0  0  0  0  0  0
   -5.2500    3.8971    0.0000 C   0  0  0  0  0  0  0  0  0  0  0  0
   -6.0000    2.5981    0.0000 C   0  0  0  0  0  0  0  0  0  0  0  0
   -5.2500    1.2990    0.0000 C   0  0  0  0  0  0  0  0  0  0  0  0
   -7.5000    2.5981    0.0000 C   0  0  0  0  0  0  0  0  0  0  0  0
   -9.0000    2.5981    0.0000 C   0  0  0  0  0  0  0  0  0  0  0  0
   -0.7500   -1.2990    0.0000 C   0  0  0  0  0  0  0  0  0  0  0  0
   -1.5000   -2.5981    0.0000 C   0  0  0  0  0  0  0  0  0  0  0  0
   -0.7500   -3.8971    0.0000 C   0  0  0  0  0  0  0  0  0  0  0  0
   -1.5000   -5.1962    0.0000 O   0  0  0  0  0  0  0  0  0  0  0  0
   -3.0000   -5.1962    0.0000 C   0  0  0  0  0  0  0  0  0  0  0  0
   -3.7500   -6.4952    0.0000 C   0  0  0  0  0  0  0  0  0  0  0  0
   -5.2500   -6.4952    0.0000 O   0  0  0  0  0  0  0  0  0  0  0  0
   -6.0000   -7.7942    0.0000 C   0  0  0  0  0  0  0  0  0  0  0  0
  1  2  1  0
  2  3  1  0
  3  4  1  0
  4  5  1  0
  5  6  1  0
  6  7  2  0
  7  8  1  0
  8  9  2  0
  9 10  1  0
 10 11  2  0
 11 12  1  0
 12 13  1  0
 13 14  1  0
 14 15  2  0
 15 16  1  0
 16 17  2  0
 17 18  1  0
 18 19  2  0
 18 20  1  0
 20 21  3  0
 12 22  2  0
 22 23  1  0
 23 24  2  0
 24 25  1  0
 25 26  1  0
 26 27  1  0
 27 28  1  0
 28 29  1  0
 24  6  1  0
 22  8  1  0
 19 14  1  0
M  END
$$$$
1449222
     RDKit          2D

 46 50  0  0  0  0  0  0  0  0999 V2000
   27.7500  -14.2894    0.0000 C   0  0  0  0  0  0  0  0  0  0  0  0
   26.2500  -14.2894    0.0000 O   0  0  0  0  0  0  0  0  0  0  0  0
   25.5000  -12.9904    0.0000 C   0  0  0  0  0  0  0  0  0  0  0  0
   24.0000  -12.9904    0.0000 C   0  0  0  0  0  0  0  0  0  0  0  0
   23.2500  -11.6913    0.0000 O   0  0  0  0  0  0  0  0  0  0  0  0
   21.7500  -11.6913    0.0000 C   0  0  0  0  0  0  0  0  0  0  0  0
   21.0000  -10.3923    0.0000 C   0  0  0  0  0  0  0  0  0  0  0  0
   19.5000  -10.3923    0.0000 O   0  0  0  0  0  0  0  0  0  0  0  0
   18.7500   -9.0933    0.0000 C   0  0  0  0  0  0  0  0  0  0  0  0
   17.2500   -9.0933    0.0000 C   0  0  0  0  0  0  0  0  0  0  0  0
   16.5000   -7.7942    0.0000 O   0  0  0  0  0  0  0  0  0  0  0  0
   15.0000   -7.7942    0.0000 C   0  0  0  0  0  0  0  0  0  0  0  0
   14.2500   -6.4952    0.0000 C   0  0  0  0  0  0  0  0  0  0  0  0
   12.7500   -6.4952    0.0000 O   0  0  0  0  0  0  0  0  0  0  0  0
   12.0000   -5.1962    0.0000 C   0  0  0  0  0  0  0  0  0  0  0  0
   10.5000   -5.1962    0.0000 C   0  0  0  0  0  0  0  0  0  0  0  0
    9.7500   -3.8971    0.0000 O   0  0  0  0  0  0  0  0  0  0  0  0
    8.2500   -3.8971    0.0000 C   0  0  0  0  0  0  0  0  0  0  0  0
    7.5000   -2.5981    0.0000 C   0  0  0  0  0  0  0  0  0  0  0  0
    6.0000   -2.5981    0.0000 O   0  0  0  0  0  0  0  0  0  0  0  0
    5.2500   -1.2990    0.0000 C   0  0  0  0  0  0  0  0  0  0  0  0
    3.7500   -1.2990    0.0000 C   0  0  0  0  0  0  0  0  0  0  0  0
    3.0000    0.0000    0.0000 O   0  0  0  0  0  0  0  0  0  0  0  0
    1.5000    0.0000    0.0000 C   0  0  0  0  0  0  0  0  0  0  0  0
    0.7500   -1.2990    0.0000 C   0  0  0  0  0  0  0  0  0  0  0  0
   -0.7500   -1.2990    0.0000 C   0  0  0  0  0  0  0  0  0  0  0  0
   -1.5000    0.0000    0.0000 C   0  0  0  0  0  0  0  0  0  0  0  0
   -1.9134   -1.4419    0.0000 O   0  0  0  0  0  0  0  0  0  0  0  0
   -3.0000    0.0000    0.0000 C   0  0  0  0  0  0  0  0  0  0  0  0
   -3.7500    1.2990    0.0000 C   0  0  0  0  0  0  0  0  0  0  0  0
   -3.0000    2.5981    0.0000 C   0  0  0  0  0  0  0  0  0  0  0  0
   -3.7500    3.8971    0.0000 C   0  0  0  0  0  0  0  0  0  0  0  0
   -3.0000    5.1962    0.0000 C   0  0  0  0  0  0  0  0  0  0  0  0
   -1.5000    5.1962    0.0000 C   0  0  0  0  0  0  0  0  0  0  0  0
   -0.7500    6.4952    0.0000 O   0  0  0  0  0  0  0  0  0  0  0  0
   -0.7500    3.8971    0.0000 C   0  0  0  0  0  0  0  0  0  0  0  0
    0.6203    3.2870    0.0000 O   0  0  0  0  0  0  0  0  0  0  0  0
    0.7500    1.2990    0.0000 C   0  0  0  0  0  0  0  0  0  0  0  0
   -0.7500    1.2990    0.0000 C   0  0  0  0  0  0  0  0  0  0  0  0
   -1.5846    1.4456    0.0000 C   0  0  0  0  0  0  0  0  0  0  0  0
   -1.8000    0.5196    0.0000 C   0  0  0  0  0  0  0  0  0  0  0  0
   -2.7096    0.7961    0.0000 N   0  0  0  0  0  0  0  0  0  0  0  0
   -3.0000   -2.5981    0.0000 C   0  0  0  0  0  0  0  0  0  0  0  0
   -4.5000   -2.5981    0.0000 C   0  0  0  0  0  0  0  0  0  0  0  0
   -5.2500   -3.8971    0.0000 C   0  0  0  0  0  0  0  0  0  0  0  0
   -1.5000    2.5981    0.0000 C   0  0  0  0  0  0  0  0  0  0  0  0
  1  2  1  0
  2  3  1  0
  3  4  1  0
  4  5  1  0
  5  6  1  0
  6  7  1  0
  7  8  1  0
  8  9  1  0
  9 10  1  0
 10 11  1  0
 11 12  1  0
 12 13  1  0
 13 14  1  0
 14 15  1  0
 15 16  1  0
 16 17  1  0
 17 18  1  0
 18 19  1  0
 19 20  1  0
 20 21  1  0
 21 22  1  0
 22 23  1  0
 24 23  1  1
 24 25  1  0
 25 26  1  0
 26 27  1  0
 27 28  1  6
 27 29  1  0
 29 30  1  1
 30 31  1  0
 31 32  2  0
 32 33  1  0
 33 34  2  0
 34 35  1  0
 34 36  1  0
 36 37  1  0
 38 37  1  1
 38 39  1  0
 39 40  1  6
 40 41  1  0
 41 42  1  0
 42 43  1  0
 43 44  1  0
 44 45  2  0
 39 46  1  0
 38 24  1  0
 39 27  1  0
 42 29  1  0
 46 31  1  0
 46 36  2  0
M  END
$$$$
1449220
     RDKit          2D

 52 55  0  0  0  0  0  0  0  0999 V2000
   27.7500  -14.2894    0.0000 C   0  0  0  0  0  0  0  0  0  0  0  0
   26.2500  -14.2894    0.0000 O   0  0  0  0  0  0  0  0  0  0  0  0
   25.5000  -12.9904    0.0000 C   0  0  0  0  0  0  0  0  0  0  0  0
   24.0000  -12.9904    0.0000 C   0  0  0  0  0  0  0  0  0  0  0  0
   23.2500  -11.6913    0.0000 O   0  0  0  0  0  0  0  0  0  0  0  0
   21.7500  -11.6913    0.0000 C   0  0  0  0  0  0  0  0  0  0  0  0
   21.0000  -10.3923    0.0000 C   0  0  0  0  0  0  0  0  0  0  0  0
   19.5000  -10.3923    0.0000 O   0  0  0  0  0  0  0  0  0  0  0  0
   18.7500   -9.0933    0.0000 C   0  0  0  0  0  0  0  0  0  0  0  0
   17.2500   -9.0933    0.0000 C   0  0  0  0  0  0  0  0  0  0  0  0
   16.5000   -7.7942    0.0000 O   0  0  0  0  0  0  0  0  0  0  0  0
   15.0000   -7.7942    0.0000 C   0  0  0  0  0  0  0  0  0  0  0  0
   14.2500   -6.4952    0.0000 C   0  0  0  0  0  0  0  0  0  0  0  0
   12.7500   -6.4952    0.0000 O   0  0  0  0  0  0  0  0  0  0  0  0
   12.0000   -5.1962    0.0000 C   0  0  0  0  0  0  0  0  0  0  0  0
   10.5000   -5.1962    0.0000 C   0  0  0  0  0  0  0  0  0  0  0  0
    9.7500   -3.8971    0.0000 O   0  0  0  0  0  0  0  0  0  0  0  0
    8.2500   -3.8971    0.0000 C   0  0  0  0  0  0  0  0  0  0  0  0
    7.5000   -2.5981    0.0000 C   0  0  0  0  0  0  0  0  0  0  0  0
    6.0000   -2.5981    0.0000 O   0  0  0  0  0  0  0  0  0  0  0  0
    5.2500   -1.2990    0.0000 C   0  0  0  0  0  0  0  0  0  0  0  0
    3.7500   -1.2990    0.0000 C   0  0  0  0  0  0  0  0  0  0  0  0
    3.0000    0.0000    0.0000 O   0  0  0  0  0  0  0  0  0  0  0  0
    1.5000    0.0000    0.0000 C   0  0  0  0  0  0  0  0  0  0  0  0
    0.7500   -1.2990    0.0000 C   0  0  0  0  0  0  0  0  0  0  0  0
   -0.7500   -1.2990    0.0000 C   0  0  0  0  0  0  0  0  0  0  0  0
   -1.5000    0.0000    0.0000 C   0  0  0  0  0  0  0  0  0  0  0  0
   -1.9134   -1.4419    0.0000 O   0  0  0  0  0  0  0  0  0  0  0  0
   -3.0000    0.0000    0.0000 C   0  0  0  0  0  0  0  0  0  0  0  0
   -3.7500    1.2990    0.0000 C   0  0  0  0  0  0  0  0  0  0  0  0
   -3.0000    2.5981    0.0000 C   0  0  0  0  0  0  0  0  0  0  0  0
   -3.7500    3.8971    0.0000 C   0  0  0  0  0  0  0  0  0  0  0  0
   -3.0000    5.1962    0.0000 C   0  0  0  0  0  0  0  0  0  0  0  0
   -1.5000    5.1962    0.0000 C   0  0  0  0  0  0  0  0  0  0  0  0
   -0.7500    6.4952    0.0000 O   0  0  0  0  0  0  0  0  0  0  0  0
   -0.7500    3.8971    0.0000 C   0  0  0  0  0  0  0  0  0  0  0  0
    0.6203    3.2870    0.0000 O   0  0  0  0  0  0  0  0  0  0  0  0
    0.7500    1.2990    0.0000 C   0  0  0  0  0  0  0  0  0  0  0  0
   -0.7500    1.2990    0.0000 C   0  0  0  0  0  0  0  0  0  0  0  0
   -1.5846    1.4456    0.0000 C   0  0  0  0  0  0  0  0  0  0  0  0
   -1.8000    0.5196    0.0000 C   0  0  0  0  0  0  0  0  0  0  0  0
   -2.7096    0.7961    0.0000 N   0  0  0  0  0  0  0  0  0  0  0  0
   -3.0000   -2.5981    0.0000 C   0  0  0  0  0  0  0  0  0  0  0  0
   -4.5000   -2.5981    0.0000 C   0  0  0  0  0  0  0  0  0  0  0  0
   -5.2500   -3.8971    0.0000 C   0  0  0  0  0  0  0  0  0  0  0  0
   -1.5000    2.5981    0.0000 C   0  0  0  0  0  0  0  0  0  0  0  0
   -1.2990    9.7452    0.0000 O   0  0  0  0  0  0  0  0  0  0  0  0
    0.0000    8.9952    0.0000 C   0  0  0  0  0  0  0  0  0  0  0  0
   -0.0000    7.4952    0.0000 O   0  0  0  0  0  0  0  0  0  0  0  0
    1.2990    9.7452    0.0000 C   0  0  0  0  0  0  0  0  0  0  0  0
    1.2990   11.2452    0.0000 O   0  0  0  0  0  0  0  0  0  0  0  0
    2.5981    8.9952    0.0000 O   0  0  0  0  0  0  0  0  0  0  0  0
  1  2  1  0
  2  3  1  0
  3  4  1  0
  4  5  1  0
  5  6  1  0
  6  7  1  0
  7  8  1  0
  8  9  1  0
  9 10  1  0
 10 11  1  0
 11 12  1  0
 12 13  1  0
 13 14  1  0
 14 15  1  0
 15 16  1  0
 16 17  1  0
 17 18  1  0
 18 19  1  0
 19 20  1  0
 20 21  1  0
 21 22  1  0
 22 23  1  0
 24 23  1  1
 24 25  1  0
 25 26  1  0
 26 27  1  0
 27 28  1  6
 27 29  1  0
 29 30  1  1
 30 31  1  0
 31 32  2  0
 32 33  1  0
 33 34  2  0
 34 35  1  0
 34 36  1  0
 36 37  1  0
 38 37  1  1
 38 39  1  0
 39 40  1  6
 40 41  1  0
 41 42  1  0
 42 43  1  0
 43 44  1  0
 44 45  2  0
 39 46  1  0
 47 48  1  0
 48 49  2  0
 48 50  1  0
 50 51  2  0
 50 52  1  0
 38 24  1  0
 39 27  1  0
 42 29  1  0
 46 31  1  0
 46 36  2  0
M  END
$$$$
88739
     RDKit          2D

 18 18  0  0  0  0  0  0  0  0999 V2000
    9.7500   -3.8971    0.0000 C   0  0  0  0  0  0  0  0  0  0  0  0
    8.2500   -3.8971    0.0000 O   0  0  0  0  0  0  0  0  0  0  0  0
    7.5000   -2.5981    0.0000 C   0  0  0  0  0  0  0  0  0  0  0  0
    6.0000   -2.5981    0.0000 C   0  0  0  0  0  0  0  0  0  0  0  0
    5.2500   -3.8971    0.0000 N   0  0  0  0  0  0  0  0  0  0  0  0
    6.0000   -5.1962    0.0000 C   0  0  0  0  0  0  0  0  0  0  0  0
    7.5000   -5.1962    0.0000 O   0  0  0  0  0  0  0  0  0  0  0  0
    5.2500   -6.4952    0.0000 C   0  0  0  0  0  0  0  0  0  0  0  0
    5.2500   -1.2990    0.0000 C   0  0  0  0  0  0  0  0  0  0  0  0
    6.0000    0.0000    0.0000 O   0  0  0  0  0  0  0  0  0  0  0  0
    3.7500   -1.2990    0.0000 N   0  0  0  0  0  0  0  0  0  0  0  0
    3.0000    0.0000    0.0000 C   0  0  0  0  0  0  0  0  0  0  0  0
    1.5000    0.0000    0.0000 C   0  0  0  0  0  0  0  0  0  0  0  0
    0.7500   -1.2990    0.0000 C   0  0  0  0  0  0  0  0  0  0  0  0
   -0.7500   -1.2990    0.0000 C   0  0  0  0  0  0  0  0  0  0  0  0
   -1.5000    0.0000    0.0000 C   0  0  0  0  0  0  0  0  0  0  0  0
   -0.7500    1.2990    0.0000 C   0  0  0  0  0  0  0  0  0  0  0  0
    0.7500    1.2990    0.0000 C   0  0  0  0  0  0  0  0  0  0  0  0
  1  2  1  0
  2  3  1  0
  4  3  1  1
  4  5  1  0
  5  6  1  0
  6  7  2  0
  6  8  1  0
  4  9  1  0
  9 10  2  0
  9 11  1  0
 11 12  1  0
 12 13  1  0
 13 14  2  0
 14 15  1  0
 15 16  2  0
 16 17  1  0
 17 18  2  0
 18 13  1  0
M  END
$$$$
1926911
     RDKit          2D

 65 73  0  0  0  0  0  0  0  0999 V2000
    3.1024  -12.7350    0.0000 C   0  0  0  0  0  0  0  0  0  0  0  0
    2.3524  -11.4360    0.0000 O   0  0  0  0  0  0  0  0  0  0  0  0
    3.1024  -10.1369    0.0000 C   0  0  0  0  0  0  0  0  0  0  0  0
    2.3524   -8.8379    0.0000 C   0  0  0  0  0  0  0  0  0  0  0  0
    2.9625   -7.4676    0.0000 C   0  0  0  0  0  0  0  0  0  0  0  0
    1.8478   -6.4639    0.0000 C   0  0  0  0  0  0  0  0  0  0  0  0
    0.5488   -7.2139    0.0000 N   0  0  0  0  0  0  0  0  0  0  0  0
    0.8606   -8.6811    0.0000 C   0  0  0  0  0  0  0  0  0  0  0  0
   -0.8215   -6.6038    0.0000 C   0  0  0  0  0  0  0  0  0  0  0  0
   -0.9783   -5.1120    0.0000 O   0  0  0  0  0  0  0  0  0  0  0  0
   -2.0351   -7.4854    0.0000 C   0  0  0  0  0  0  0  0  0  0  0  0
   -1.8783   -8.9772    0.0000 N   0  0  0  0  0  0  0  0  0  0  0  0
   -3.0918   -9.8589    0.0000 C   0  0  0  0  0  0  0  0  0  0  0  0
   -4.4621   -9.2488    0.0000 O   0  0  0  0  0  0  0  0  0  0  0  0
   -2.9350  -11.3507    0.0000 O   0  0  0  0  0  0  0  0  0  0  0  0
   -4.1485  -12.2324    0.0000 C   0  0  0  0  0  0  0  0  0  0  0  0
   -3.4054   -6.8753    0.0000 C   0  0  0  0  0  0  0  0  0  0  0  0
   -3.5622   -5.3836    0.0000 C   0  0  0  0  0  0  0  0  0  0  0  0
   -4.9325   -4.7735    0.0000 C   0  0  0  0  0  0  0  0  0  0  0  0
   -6.1460   -5.6551    0.0000 C   0  0  0  0  0  0  0  0  0  0  0  0
   -5.9892   -7.1469    0.0000 C   0  0  0  0  0  0  0  0  0  0  0  0
   -4.6189   -7.7570    0.0000 C   0  0  0  0  0  0  0  0  0  0  0  0
    2.0046   -4.9721    0.0000 C   0  0  0  0  0  0  0  0  0  0  0  0
    0.8899   -3.9684    0.0000 N   0  0  0  0  0  0  0  0  0  0  0  0
    1.5000   -2.5981    0.0000 C   0  0  0  0  0  0  0  0  0  0  0  0
    2.9918   -2.7549    0.0000 C   0  0  0  0  0  0  0  0  0  0  0  0
    3.3037   -4.2221    0.0000 N   0  0  0  0  0  0  0  0  0  0  0  0
    0.7500   -1.2990    0.0000 C   0  0  0  0  0  0  0  0  0  0  0  0
    1.5000    0.0000    0.0000 C   0  0  0  0  0  0  0  0  0  0  0  0
    0.7500    1.2990    0.0000 C   0  0  0  0  0  0  0  0  0  0  0  0
   -0.7500    1.2990    0.0000 C   0  0  0  0  0  0  0  0  0  0  0  0
   -1.5000    0.0000    0.0000 C   0  0  0  0  0  0  0  0  0  0  0  0
   -3.0000    0.0000    0.0000 C   0  0  0  0  0  0  0  0  0  0  0  0
   -3.7500    1.2990    0.0000 O   0  0  0  0  0  0  0  0  0  0  0  0
   -3.0000    2.5981    0.0000 C   0  0  0  0  0  0  0  0  0  0  0  0
   -3.7500    3.8971    0.0000 C   0  0  0  0  0  0  0  0  0  0  0  0
   -3.0000    5.1962    0.0000 C   0  0  0  0  0  0  0  0  0  0  0  0
   -1.5000    5.1962    0.0000 C   0  0  0  0  0  0  0  0  0  0  0  0
   -0.7500    6.4952    0.0000 C   0  0  0  0  0  0  0  0  0  0  0  0
   -1.5000    7.7942    0.0000 C   0  0  0  0  0  0  0  0  0  0  0  0
   -3.0000    7.7942    0.0000 C   0  0  0  0  0  0  0  0  0  0  0  0
   -4.0037    8.9089    0.0000 N   0  0  0  0  0  0  0  0  0  0  0  0
   -5.3740    8.2988    0.0000 C   0  0  0  0  0  0  0  0  0  0  0  0
   -5.2172    6.8071    0.0000 N   0  0  0  0  0  0  0  0  0  0  0  0
   -3.7500    6.4952    0.0000 C   0  0  0  0  0  0  0  0  0  0  0  0
   -6.6731    9.0488    0.0000 C   0  0  0  0  0  0  0  0  0  0  0  0
   -8.0434    8.4387    0.0000 C   0  0  0  0  0  0  0  0  0  0  0  0
   -9.0471    9.5535    0.0000 C   0  0  0  0  0  0  0  0  0  0  0  0
   -8.2971   10.8525    0.0000 C   0  0  0  0  0  0  0  0  0  0  0  0
   -8.9072   12.2228    0.0000 C   0  0  0  0  0  0  0  0  0  0  0  0
   -6.8298   10.5406    0.0000 N   0  0  0  0  0  0  0  0  0  0  0  0
   -5.7151   11.5443    0.0000 C   0  0  0  0  0  0  0  0  0  0  0  0
   -4.2885   11.0808    0.0000 O   0  0  0  0  0  0  0  0  0  0  0  0
   -6.0270   13.0115    0.0000 C   0  0  0  0  0  0  0  0  0  0  0  0
   -7.4536   13.4751    0.0000 N   0  0  0  0  0  0  0  0  0  0  0  0
   -7.7654   14.9423    0.0000 C   0  0  0  0  0  0  0  0  0  0  0  0
   -6.6507   15.9460    0.0000 O   0  0  0  0  0  0  0  0  0  0  0  0
   -9.1920   15.4058    0.0000 O   0  0  0  0  0  0  0  0  0  0  0  0
   -9.5039   16.8730    0.0000 C   0  0  0  0  0  0  0  0  0  0  0  0
   -4.9123   14.0152    0.0000 C   0  0  0  0  0  0  0  0  0  0  0  0
   -5.2241   15.4825    0.0000 C   0  0  0  0  0  0  0  0  0  0  0  0
   -3.4857   13.5517    0.0000 C   0  0  0  0  0  0  0  0  0  0  0  0
   -0.7500    3.8971    0.0000 C   0  0  0  0  0  0  0  0  0  0  0  0
   -1.5000    2.5981    0.0000 C   0  0  0  0  0  0  0  0  0  0  0  0
   -0.7500   -1.2990    0.0000 C   0  0  0  0  0  0  0  0  0  0  0  0
  1  2  1  0
  2  3  1  0
  4  3  1  6
  4  5  1  0
  5  6  1  0
  6  7  1  0
  7  8  1  0
  7  9  1  0
  9 10  2  0
  9 11  1  0
 11 12  1  6
 12 13  1  0
 13 14  2  0
 13 15  1  0
 15 16  1  0
 11 17  1  0
 17 18  2  0
 18 19  1  0
 19 20  2  0
 20 21  1  0
 21 22  2  0
  6 23  1  6
 23 24  2  0
 24 25  1  0
 25 26  2  0
 26 27  1  0
 25 28  1  0
 28 29  2  0
 29 30  1  0
 30 31  2  0
 31 32  1  0
 32 33  1  0
 33 34  1  0
 34 35  1  0
 35 36  2  0
 36 37  1  0
 37 38  2  0
 38 39  1  0
 39 40  2  0
 40 41  1  0
 41 42  1  0
 42 43  2  0
 43 44  1  0
 44 45  1  0
 46 43  1  6
 46 47  1  0
 47 48  1  0
 48 49  1  0
 49 50  1  6
 49 51  1  0
 51 52  1  0
 52 53  2  0
 52 54  1  0
 54 55  1  1
 55 56  1  0
 56 57  2  0
 56 58  1  0
 58 59  1  0
 54 60  1  0
 60 61  1  0
 60 62  1  0
 38 63  1  0
 63 64  2  0
 32 65  2  0
  8  4  1  0
 22 17  1  0
 27 23  1  0
 65 28  1  0
 64 31  1  0
 64 35  1  0
 45 37  1  0
 45 41  2  0
 51 46  1  0
M  END
$$$$
674831
     RDKit          2D

 27 28  0  0  0  0  0  0  0  0999 V2000
    0.0000    6.1962    0.0000 C   0  0  0  0  0  0  0  0  0  0  0  0
    1.2990    6.9462    0.0000 O   0  0  0  0  0  0  0  0  0  0  0  0
    2.5981    6.1962    0.0000 S   0  0  0  0  0  0  0  0  0  0  0  0
    1.8481    4.8971    0.0000 O   0  0  0  0  0  0  0  0  0  0  0  0
    3.3481    7.4952    0.0000 O   0  0  0  0  0  0  0  0  0  0  0  0
    3.8971    5.4462    0.0000 O   0  0  0  0  0  1  0  0  0  0  0  0
    2.6491    0.9642    0.0000 C   0  0  0  0  0  0  0  0  0  0  0  0
    1.5000    0.0000    0.0000 N   0  0  0  0  0  4  0  0  0  0  0  0
    2.6491   -0.9642    0.0000 C   0  0  0  0  0  0  0  0  0  0  0  0
    0.7500   -1.2990    0.0000 C   0  0  0  0  0  0  0  0  0  0  0  0
   -0.7500   -1.2990    0.0000 C   0  0  0  0  0  0  0  0  0  0  0  0
   -1.5000    0.0000    0.0000 C   0  0  0  0  0  0  0  0  0  0  0  0
   -3.0000    0.0000    0.0000 C   0  0  0  0  0  0  0  0  0  0  0  0
   -3.7500    1.2990    0.0000 C   0  0  0  0  0  0  0  0  0  0  0  0
   -3.0000    2.5981    0.0000 C   0  0  0  0  0  0  0  0  0  0  0  0
   -3.7500    3.8971    0.0000 C   0  0  0  0  0  0  0  0  0  0  0  0
   -5.2500    3.8971    0.0000 C   0  0  0  0  0  0  0  0  0  0  0  0
   -6.0000    2.5981    0.0000 C   0  0  0  0  0  0  0  0  0  0  0  0
   -5.2500    1.2990    0.0000 C   0  0  0  0  0  0  0  0  0  0  0  0
   -3.7500   -1.2990    0.0000 C   0  0  0  0  0  0  0  0  0  0  0  0
   -5.2500   -1.2990    0.0000 C   0  0  0  0  0  0  0  0  0  0  0  0
   -6.0000   -2.5981    0.0000 C   0  0  0  0  0  0  0  0  0  0  0  0
   -5.2500   -3.8971    0.0000 C   0  0  0  0  0  0  0  0  0  0  0  0
   -3.7500   -3.8971    0.0000 C   0  0  0  0  0  0  0  0  0  0  0  0
   -3.0000   -2.5981    0.0000 C   0  0  0  0  0  0  0  0  0  0  0  0
   -0.7500    1.2990    0.0000 C   0  0  0  0  0  0  0  0  0  0  0  0
    0.7500    1.2990    0.0000 C   0  0  0  0  0  0  0  0  0  0  0  0
  1  2  1  0
  2  3  1  0
  3  4  2  0
  3  5  2  0
  3  6  1  0
  7  8  1  0
  8  9  1  0
  8 10  1  0
 10 11  1  0
 11 12  1  0
 12 13  2  0
 13 14  1  0
 14 15  2  0
 15 16  1  0
 16 17  2  0
 17 18  1  0
 18 19  2  0
 13 20  1  0
 20 21  2  0
 21 22  1  0
 22 23  2  0
 23 24  1  0
 24 25  2  0
 12 26  1  0
 26 27  1  0
 27  8  1  0
 19 14  1  0
 25 20  1  0
M  CHG  2   6  -1   8   1
M  END
$$$$
1049461
     RDKit          2D

 29 30  0  0  0  0  0  0  0  0999 V2000
    0.0000    6.5981    0.0000 C   0  0  0  0  0  0  0  0  0  0  0  0
    1.2990    7.3481    0.0000 O   0  0  0  0  0  0  0  0  0  0  0  0
    2.5981    6.5981    0.0000 S   0  0  0  0  0  0  0  0  0  0  0  0
    1.8481    5.2990    0.0000 O   0  0  0  0  0  0  0  0  0  0  0  0
    3.3481    7.8971    0.0000 O   0  0  0  0  0  0  0  0  0  0  0  0
    3.8971    5.8481    0.0000 O   0  0  0  0  0  1  0  0  0  0  0  0
    2.6491   -0.9642    0.0000 C   0  0  0  0  0  0  0  0  0  0  0  0
    1.5000   -0.0000    0.0000 N   0  0  0  0  0  4  0  0  0  0  0  0
    2.6491    0.9642    0.0000 C   0  0  0  0  0  0  0  0  0  0  0  0
    0.7500    1.2990    0.0000 C   0  0  0  0  0  0  0  0  0  0  0  0
   -0.7500    1.2990    0.0000 C   0  0  0  0  0  0  0  0  0  0  0  0
   -1.5000   -0.0000    0.0000 N   0  0  0  0  0  0  0  0  0  0  0  0
   -3.0000    0.0000    0.0000 C   0  0  0  0  0  0  0  0  0  0  0  0
   -3.7500    1.2990    0.0000 C   0  0  0  0  0  0  0  0  0  0  0  0
   -4.5000    2.5981    0.0000 O   0  0  0  0  0  0  0  0  0  0  0  0
   -2.4510    2.0490    0.0000 C   0  0  0  0  0  0  0  0  0  0  0  0
   -2.4510    3.5490    0.0000 C   0  0  0  0  0  0  0  0  0  0  0  0
   -1.1519    4.2990    0.0000 C   0  0  0  0  0  0  0  0  0  0  0  0
    0.1471    3.5490    0.0000 C   0  0  0  0  0  0  0  0  0  0  0  0
    0.1471    2.0490    0.0000 C   0  0  0  0  0  0  0  0  0  0  0  0
   -1.1519    1.2990    0.0000 C   0  0  0  0  0  0  0  0  0  0  0  0
   -5.0490    0.5490    0.0000 C   0  0  0  0  0  0  0  0  0  0  0  0
   -5.0490   -0.9510    0.0000 C   0  0  0  0  0  0  0  0  0  0  0  0
   -6.3481   -1.7010    0.0000 C   0  0  0  0  0  0  0  0  0  0  0  0
   -7.6471   -0.9510    0.0000 C   0  0  0  0  0  0  0  0  0  0  0  0
   -7.6471    0.5490    0.0000 C   0  0  0  0  0  0  0  0  0  0  0  0
   -6.3481    1.2990    0.0000 C   0  0  0  0  0  0  0  0  0  0  0  0
   -0.7500   -1.2990    0.0000 C   0  0  0  0  0  0  0  0  0  0  0  0
    0.7500   -1.2990    0.0000 C   0  0  0  0  0  0  0  0  0  0  0  0
  1  2  1  0
  2  3  1  0
  3  4  2  0
  3  5  2  0
  3  6  1  0
  7  8  1  0
  8  9  1  0
  8 10  1  0
 10 11  1  0
 11 12  1  0
 12 13  1  0
 13 14  1  0
 14 15  1  0
 14 16  1  0
 16 17  1  0
 17 18  1  0
 18 19  1  0
 19 20  1  0
 20 21  1  0
 14 22  1  0
 22 23  2  0
 23 24  1  0
 24 25  2  0
 25 26  1  0
 26 27  2  0
 12 28  1  0
 28 29  1  0
 29  8  1  0
 21 16  1  0
 27 22  1  0
M  CHG  2   6  -1   8   1
M  END
$$$$
924
     RDKit          2D

 57 60  0  0  0  0  0  0  0  0999 V2000
   10.8531   -3.0089    0.0000 C   0  0  0  0  0  0  0  0  0  0  0  0
   10.8531   -1.5089    0.0000 O   0  0  0  0  0  0  0  0  0  0  0  0
    9.5541   -0.7589    0.0000 C   0  0  0  0  0  0  0  0  0  0  0  0
    8.2551   -1.5089    0.0000 C   0  0  0  0  0  0  0  0  0  0  0  0
    6.9560   -0.7589    0.0000 C   0  0  0  0  0  0  0  0  0  0  0  0
    6.9560    0.7411    0.0000 C   0  0  0  0  0  0  0  0  0  0  0  0
    8.2551    1.4911    0.0000 C   0  0  0  0  0  0  0  0  0  0  0  0
    9.5541    0.7411    0.0000 C   0  0  0  0  0  0  0  0  0  0  0  0
   10.8531    1.4911    0.0000 O   0  0  0  0  0  0  0  0  0  0  0  0
    5.6570   -1.5089    0.0000 C   0  0  0  0  0  0  0  0  0  0  0  0
    5.6570   -3.0089    0.0000 C   0  0  0  0  0  0  0  0  0  0  0  0
    6.9560   -3.7589    0.0000 C   0  0  0  0  0  0  0  0  0  0  0  0
    4.3580   -3.7589    0.0000 C   0  0  0  0  0  0  0  0  0  0  0  0
    3.4227   -2.5862    0.0000 O   0  0  0  0  0  0  0  0  0  0  0  0
    2.1834   -1.7412    0.0000 C   0  0  0  0  0  0  0  0  0  0  0  0
    2.8342   -0.3897    0.0000 O   0  0  0  0  0  0  0  0  0  0  0  0
    0.7500   -1.2990    0.0000 C   0  0  0  0  0  0  0  0  0  0  0  0
    1.5000    0.0000    0.0000 C   0  0  0  0  0  0  0  0  0  0  0  0
    0.7500    1.2990    0.0000 C   0  0  0  0  0  0  0  0  0  0  0  0
   -0.7500    1.2990    0.0000 C   0  0  0  0  0  0  0  0  0  0  0  0
   -1.5000    0.0000    0.0000 C   0  0  0  0  0  0  0  0  0  0  0  0
   -0.7500   -1.2990    0.0000 N   0  0  0  0  0  0  0  0  0  0  0  0
   -2.1834   -1.7412    0.0000 C   0  0  0  0  0  0  0  0  0  0  0  0
   -2.8342   -0.3897    0.0000 O   0  0  0  0  0  0  0  0  0  0  0  0
   -3.4227   -2.5862    0.0000 C   0  0  0  0  0  0  0  0  0  0  0  0
   -4.4430   -1.4866    0.0000 O   0  0  0  0  0  0  0  0  0  0  0  0
   -4.3580   -3.7589    0.0000 C   0  0  0  0  0  0  0  0  0  0  0  0
   -5.4369   -2.7169    0.0000 O   0  0  0  0  0  0  0  0  0  0  0  0
   -4.9060   -5.1552    0.0000 O   0  0  0  0  0  0  0  0  0  0  0  0
   -5.0181   -6.6510    0.0000 C   0  0  0  0  0  0  0  0  0  0  0  0
   -4.6843   -8.1134    0.0000 C   0  0  0  0  0  0  0  0  0  0  0  0
   -3.9343   -9.4124    0.0000 C   0  0  0  0  0  0  0  0  0  0  0  0
   -2.8347  -10.4327    0.0000 C   0  0  0  0  0  0  0  0  0  0  0  0
   -3.6797  -11.6721    0.0000 C   0  0  0  0  0  0  0  0  0  0  0  0
   -1.4832  -11.0835    0.0000 C   0  0  0  0  0  0  0  0  0  0  0  0
   -0.0000  -11.3071    0.0000 C   0  0  0  0  0  0  0  0  0  0  0  0
    1.4832  -11.0835    0.0000 C   0  0  0  0  0  0  0  0  0  0  0  0
    2.8347  -10.4327    0.0000 C   0  0  0  0  0  0  0  0  0  0  0  0
    3.6797  -11.6721    0.0000 C   0  0  0  0  0  0  0  0  0  0  0  0
    3.0289  -13.0235    0.0000 C   0  0  0  0  0  0  0  0  0  0  0  0
    3.8738  -14.2629    0.0000 C   0  0  0  0  0  0  0  0  0  0  0  0
    3.9343   -9.4124    0.0000 C   0  0  0  0  0  0  0  0  0  0  0  0
    5.1070  -10.3477    0.0000 O   0  0  0  0  0  0  0  0  0  0  0  0
    4.6843   -8.1134    0.0000 C   0  0  0  0  0  0  0  0  0  0  0  0
    5.0181   -6.6510    0.0000 C   0  0  0  0  0  0  0  0  0  0  0  0
    6.5139   -6.7631    0.0000 O   0  0  0  0  0  0  0  0  0  0  0  0
    4.9060   -5.1552    0.0000 C   0  0  0  0  0  0  0  0  0  0  0  0
    6.3684   -4.8214    0.0000 C   0  0  0  0  0  0  0  0  0  0  0  0
   -0.0000  -12.8071    0.0000 C   0  0  0  0  0  0  0  0  0  0  0  0
   -6.0806   -8.6614    0.0000 O   0  0  0  0  0  0  0  0  0  0  0  0
   -7.4448   -8.0378    0.0000 C   0  0  0  0  0  0  0  0  0  0  0  0
   -6.3985   -5.9581    0.0000 C   0  0  0  0  0  0  0  0  0  0  0  0
   -6.8406   -4.5247    0.0000 C   0  0  0  0  0  0  0  0  0  0  0  0
   -5.8203   -3.4251    0.0000 C   0  0  0  0  0  0  0  0  0  0  0  0
   -6.2625   -1.9918    0.0000 C   0  0  0  0  0  0  0  0  0  0  0  0
   -7.4187   -7.0576    0.0000 O   0  0  0  0  0  0  0  0  0  0  0  0
   -8.8811   -6.7239    0.0000 C   0  0  0  0  0  0  0  0  0  0  0  0
  1  2  1  0
  3  2  1  6
  3  4  1  0
  4  5  1  0
  5  6  1  0
  6  7  1  0
  7  8  1  0
  8  9  1  1
  5 10  1  6
 10 11  2  0
 11 12  1  0
 13 11  1  6
 13 14  1  0
 14 15  1  0
 15 16  2  0
 15 17  1  0
 17 18  1  1
 18 19  1  0
 19 20  1  0
 20 21  1  0
 21 22  1  0
 22 23  1  0
 23 24  2  0
 23 25  1  0
 25 26  2  0
 25 27  1  0
 27 28  1  1
 27 29  1  0
 30 29  1  6
 30 31  1  0
 31 32  1  0
 32 33  1  0
 33 34  1  6
 33 35  1  0
 35 36  1  0
 36 37  2  0
 37 38  1  0
 38 39  1  6
 39 40  1  0
 40 41  2  0
 38 42  1  0
 42 43  2  0
 42 44  1  0
 44 45  1  0
 45 46  1  1
 45 47  1  0
 47 48  1  6
 36 49  1  0
 31 50  1  6
 50 51  1  0
 30 52  1  0
 52 53  1  0
 53 54  1  0
 54 55  1  1
 52 56  1  1
 56 57  1  0
  8  3  1  0
 47 13  1  0
 22 17  1  0
 54 27  1  0
M  END
$$$$
923
     RDKit          2D

 65 68  0  0  0  0  0  0  0  0999 V2000
   -7.0104    2.9836    0.0000 C   0  0  0  0  0  0  0  0  0  0  0  0
   -8.4693    2.6347    0.0000 O   0  0  0  0  0  0  0  0  0  0  0  0
   -8.8966    1.1969    0.0000 C   0  0  0  0  0  0  0  0  0  0  0  0
   -7.8651    0.1079    0.0000 C   0  0  0  0  0  0  0  0  0  0  0  0
   -8.2924   -1.3300    0.0000 C   0  0  0  0  0  0  0  0  0  0  0  0
   -7.2609   -2.4189    0.0000 C   0  0  0  0  0  0  0  0  0  0  0  0
   -5.8020   -2.0701    0.0000 C   0  0  0  0  0  0  0  0  0  0  0  0
   -5.3747   -0.6323    0.0000 C   0  0  0  0  0  0  0  0  0  0  0  0
   -4.7704   -3.1591    0.0000 C   0  0  0  0  0  0  0  0  0  0  0  0
   -5.7415   -4.3023    0.0000 C   0  0  0  0  0  0  0  0  0  0  0  0
   -6.4441   -5.6276    0.0000 C   0  0  0  0  0  0  0  0  0  0  0  0
   -7.8376   -5.0724    0.0000 O   0  0  0  0  0  0  0  0  0  0  0  0
   -6.8454   -7.0729    0.0000 C   0  0  0  0  0  0  0  0  0  0  0  0
   -8.3257   -6.8303    0.0000 C   0  0  0  0  0  0  0  0  0  0  0  0
   -6.9266   -8.5707    0.0000 C   0  0  0  0  0  0  0  0  0  0  0  0
   -6.6840  -10.0510    0.0000 C   0  0  0  0  0  0  0  0  0  0  0  0
   -8.1293  -10.4523    0.0000 C   0  0  0  0  0  0  0  0  0  0  0  0
   -6.1287  -11.4444    0.0000 C   0  0  0  0  0  0  0  0  0  0  0  0
   -7.4540  -12.1470    0.0000 O   0  0  0  0  0  0  0  0  0  0  0  0
   -5.2870  -12.6860    0.0000 C   0  0  0  0  0  0  0  0  0  0  0  0
   -6.4302  -13.6570    0.0000 O   0  0  0  0  0  0  0  0  0  0  0  0
   -6.1609  -15.1327    0.0000 C   0  0  0  0  0  0  0  0  0  0  0  0
   -4.1980  -13.7175    0.0000 C   0  0  0  0  0  0  0  0  0  0  0  0
   -5.1057  -14.9117    0.0000 O   0  0  0  0  0  0  0  0  0  0  0  0
   -2.9127  -14.4908    0.0000 C   0  0  0  0  0  0  0  0  0  0  0  0
   -3.5425  -15.8522    0.0000 C   0  0  0  0  0  0  0  0  0  0  0  0
   -1.4912  -14.9698    0.0000 C   0  0  0  0  0  0  0  0  0  0  0  0
    0.0000  -15.1320    0.0000 C   0  0  0  0  0  0  0  0  0  0  0  0
    0.0000  -16.6320    0.0000 C   0  0  0  0  0  0  0  0  0  0  0  0
    1.4912  -14.9698    0.0000 C   0  0  0  0  0  0  0  0  0  0  0  0
    2.9127  -14.4908    0.0000 C   0  0  0  0  0  0  0  0  0  0  0  0
    4.1980  -13.7175    0.0000 C   0  0  0  0  0  0  0  0  0  0  0  0
    5.2870  -12.6860    0.0000 C   0  0  0  0  0  0  0  0  0  0  0  0
    6.1287  -11.4444    0.0000 C   0  0  0  0  0  0  0  0  0  0  0  0
    6.6840  -10.0510    0.0000 C   0  0  0  0  0  0  0  0  0  0  0  0
    8.1293  -10.4523    0.0000 C   0  0  0  0  0  0  0  0  0  0  0  0
    6.9266   -8.5707    0.0000 C   0  0  0  0  0  0  0  0  0  0  0  0
    6.8454   -7.0729    0.0000 C   0  0  0  0  0  0  0  0  0  0  0  0
    6.4441   -5.6276    0.0000 C   0  0  0  0  0  0  0  0  0  0  0  0
    7.4700   -4.4677    0.0000 C   0  0  0  0  0  0  0  0  0  0  0  0
    7.3617   -2.9716    0.0000 C   0  0  0  0  0  0  0  0  0  0  0  0
    6.0120   -2.3173    0.0000 C   0  0  0  0  0  0  0  0  0  0  0  0
    5.9037   -0.8212    0.0000 C   0  0  0  0  0  0  0  0  0  0  0  0
    4.7704   -3.1591    0.0000 C   0  0  0  0  0  0  0  0  0  0  0  0
    5.2059   -2.3878    0.0000 O   0  0  0  0  0  0  0  0  0  0  0  0
    5.7415   -4.3023    0.0000 O   0  0  0  0  0  0  0  0  0  0  0  0
    3.5763   -2.2513    0.0000 C   0  0  0  0  0  0  0  0  0  0  0  0
    4.3496   -0.9660    0.0000 O   0  0  0  0  0  0  0  0  0  0  0  0
    2.2149   -1.6215    0.0000 C   0  0  0  0  0  0  0  0  0  0  0  0
    2.6939   -0.2000    0.0000 O   0  0  0  0  0  0  0  0  0  0  0  0
    0.7500   -1.2990    0.0000 N   0  0  0  0  0  0  0  0  0  0  0  0
    1.5000    0.0000    0.0000 C   0  0  0  0  0  0  0  0  0  0  0  0
    0.7500    1.2990    0.0000 C   0  0  0  0  0  0  0  0  0  0  0  0
   -0.7500    1.2990    0.0000 C   0  0  0  0  0  0  0  0  0  0  0  0
   -1.5000    0.0000    0.0000 C   0  0  0  0  0  0  0  0  0  0  0  0
   -0.7500   -1.2990    0.0000 C   0  0  0  0  0  0  0  0  0  0  0  0
   -2.2149   -1.6215    0.0000 C   0  0  0  0  0  0  0  0  0  0  0  0
   -2.6939   -0.2000    0.0000 O   0  0  0  0  0  0  0  0  0  0  0  0
   -3.5763   -2.2513    0.0000 O   0  0  0  0  0  0  0  0  0  0  0  0
    8.4244   -8.6519    0.0000 O   0  0  0  0  0  0  0  0  0  0  0  0
    9.2437   -7.3954    0.0000 C   0  0  0  0  0  0  0  0  0  0  0  0
   -9.7513   -1.6788    0.0000 C   0  0  0  0  0  0  0  0  0  0  0  0
  -10.7828   -0.5898    0.0000 C   0  0  0  0  0  0  0  0  0  0  0  0
  -10.3555    0.8480    0.0000 C   0  0  0  0  0  0  0  0  0  0  0  0
  -11.3870    1.9370    0.0000 O   0  0  0  0  0  0  0  0  0  0  0  0
  1  2  1  0
  3  2  1  6
  3  4  1  0
  4  5  1  0
  5  6  1  6
  6  7  1  0
  7  8  1  1
  7  9  1  0
  9 10  1  1
 10 11  1  0
 11 12  2  0
 11 13  1  0
 13 14  1  1
 13 15  1  0
 15 16  2  0
 16 17  1  0
 16 18  1  0
 18 19  1  6
 18 20  1  0
 20 21  1  6
 21 22  1  0
 20 23  1  0
 23 24  2  0
 23 25  1  0
 25 26  1  1
 25 27  1  0
 27 28  1  0
 28 29  1  1
 28 30  1  0
 30 31  2  0
 31 32  1  0
 32 33  2  0
 33 34  1  0
 34 35  2  0
 35 36  1  0
 35 37  1  0
 37 38  1  0
 39 38  1  1
 39 40  1  0
 40 41  1  0
 41 42  1  0
 42 43  1  6
 42 44  1  0
 44 45  1  6
 44 46  1  0
 44 47  1  0
 47 48  2  0
 47 49  1  0
 49 50  2  0
 49 51  1  0
 51 52  1  0
 52 53  1  0
 53 54  1  0
 54 55  1  0
 56 55  1  6
 56 57  1  0
 57 58  2  0
 57 59  1  0
 37 60  1  6
 60 61  1  0
  5 62  1  0
 62 63  1  0
 63 64  1  0
 64 65  1  1
 64  3  1  0
 59  9  1  0
 46 39  1  0
 56 51  1  0
M  END
$$$$
1248731
     RDKit          2D

 68 71  0  0  0  0  0  0  0  0999 V2000
   -7.0104    2.9836    0.0000 C   0  0  0  0  0  0  0  0  0  0  0  0
   -8.4693    2.6347    0.0000 O   0  0  0  0  0  0  0  0  0  0  0  0
   -8.8966    1.1969    0.0000 C   0  0  0  0  0  0  0  0  0  0  0  0
   -7.8651    0.1079    0.0000 C   0  0  0  0  0  0  0  0  0  0  0  0
   -8.2924   -1.3300    0.0000 C   0  0  0  0  0  0  0  0  0  0  0  0
   -7.2609   -2.4189    0.0000 C   0  0  0  0  0  0  0  0  0  0  0  0
   -5.8020   -2.0701    0.0000 C   0  0  0  0  0  0  0  0  0  0  0  0
   -5.3747   -0.6323    0.0000 C   0  0  0  0  0  0  0  0  0  0  0  0
   -4.7704   -3.1591    0.0000 C   0  0  0  0  0  0  0  0  0  0  0  0
   -5.7415   -4.3023    0.0000 C   0  0  0  0  0  0  0  0  0  0  0  0
   -6.4441   -5.6276    0.0000 C   0  0  0  0  0  0  0  0  0  0  0  0
   -7.8376   -5.0724    0.0000 O   0  0  0  0  0  0  0  0  0  0  0  0
   -6.8454   -7.0729    0.0000 C   0  0  0  0  0  0  0  0  0  0  0  0
   -8.3257   -6.8303    0.0000 C   0  0  0  0  0  0  0  0  0  0  0  0
   -6.9266   -8.5707    0.0000 C   0  0  0  0  0  0  0  0  0  0  0  0
   -6.6840  -10.0510    0.0000 C   0  0  0  0  0  0  0  0  0  0  0  0
   -8.1293  -10.4523    0.0000 C   0  0  0  0  0  0  0  0  0  0  0  0
   -6.1287  -11.4444    0.0000 C   0  0  0  0  0  0  0  0  0  0  0  0
   -7.4540  -12.1470    0.0000 O   0  0  0  0  0  0  0  0  0  0  0  0
   -5.2870  -12.6860    0.0000 C   0  0  0  0  0  0  0  0  0  0  0  0
   -6.4302  -13.6570    0.0000 O   0  0  0  0  0  0  0  0  0  0  0  0
   -6.1609  -15.1327    0.0000 C   0  0  0  0  0  0  0  0  0  0  0  0
   -4.1980  -13.7175    0.0000 C   0  0  0  0  0  0  0  0  0  0  0  0
   -5.1057  -14.9117    0.0000 O   0  0  0  0  0  0  0  0  0  0  0  0
   -2.9127  -14.4908    0.0000 C   0  0  0  0  0  0  0  0  0  0  0  0
   -3.5425  -15.8522    0.0000 C   0  0  0  0  0  0  0  0  0  0  0  0
   -1.4912  -14.9698    0.0000 C   0  0  0  0  0  0  0  0  0  0  0  0
    0.0000  -15.1320    0.0000 C   0  0  0  0  0  0  0  0  0  0  0  0
    0.0000  -16.6320    0.0000 C   0  0  0  0  0  0  0  0  0  0  0  0
    1.4912  -14.9698    0.0000 C   0  0  0  0  0  0  0  0  0  0  0  0
    2.9127  -14.4908    0.0000 C   0  0  0  0  0  0  0  0  0  0  0  0
    4.1980  -13.7175    0.0000 C   0  0  0  0  0  0  0  0  0  0  0  0
    5.2870  -12.6860    0.0000 C   0  0  0  0  0  0  0  0  0  0  0  0
    6.1287  -11.4444    0.0000 C   0  0  0  0  0  0  0  0  0  0  0  0
    6.6840  -10.0510    0.0000 C   0  0  0  0  0  0  0  0  0  0  0  0
    8.1293  -10.4523    0.0000 C   0  0  0  0  0  0  0  0  0  0  0  0
    6.9266   -8.5707    0.0000 C   0  0  0  0  0  0  0  0  0  0  0  0
    6.8454   -7.0729    0.0000 C   0  0  0  0  0  0  0  0  0  0  0  0
    6.4441   -5.6276    0.0000 C   0  0  0  0  0  0  0  0  0  0  0  0
    7.4700   -4.4677    0.0000 C   0  0  0  0  0  0  0  0  0  0  0  0
    7.3617   -2.9716    0.0000 C   0  0  0  0  0  0  0  0  0  0  0  0
    6.0120   -2.3173    0.0000 C   0  0  0  0  0  0  0  0  0  0  0  0
    5.9037   -0.8212    0.0000 C   0  0  0  0  0  0  0  0  0  0  0  0
    4.7704   -3.1591    0.0000 C   0  0  0  0  0  0  0  0  0  0  0  0
    5.2059   -2.3878    0.0000 O   0  0  0  0  0  0  0  0  0  0  0  0
    5.7415   -4.3023    0.0000 O   0  0  0  0  0  0  0  0  0  0  0  0
    3.5763   -2.2513    0.0000 C   0  0  0  0  0  0  0  0  0  0  0  0
    4.3496   -0.9660    0.0000 O   0  0  0  0  0  0  0  0  0  0  0  0
    2.2149   -1.6215    0.0000 C   0  0  0  0  0  0  0  0  0  0  0  0
    2.6939   -0.2000    0.0000 O   0  0  0  0  0  0  0  0  0  0  0  0
    0.7500   -1.2990    0.0000 N   0  0  0  0  0  0  0  0  0  0  0  0
    1.5000    0.0000    0.0000 C   0  0  0  0  0  0  0  0  0  0  0  0
    0.7500    1.2990    0.0000 C   0  0  0  0  0  0  0  0  0  0  0  0
   -0.7500    1.2990    0.0000 C   0  0  0  0  0  0  0  0  0  0  0  0
   -1.5000    0.0000    0.0000 C   0  0  0  0  0  0  0  0  0  0  0  0
   -0.7500   -1.2990    0.0000 C   0  0  0  0  0  0  0  0  0  0  0  0
   -2.2149   -1.6215    0.0000 C   0  0  0  0  0  0  0  0  0  0  0  0
   -2.6939   -0.2000    0.0000 O   0  0  0  0  0  0  0  0  0  0  0  0
   -3.5763   -2.2513    0.0000 O   0  0  0  0  0  0  0  0  0  0  0  0
    8.4244   -8.6519    0.0000 O   0  0  0  0  0  0  0  0  0  0  0  0
    9.2437   -7.3954    0.0000 C   0  0  0  0  0  0  0  0  0  0  0  0
   -9.7513   -1.6788    0.0000 C   0  0  0  0  0  0  0  0  0  0  0  0
  -10.7828   -0.5898    0.0000 C   0  0  0  0  0  0  0  0  0  0  0  0
  -10.3555    0.8480    0.0000 C   0  0  0  0  0  0  0  0  0  0  0  0
  -11.3870    1.9370    0.0000 O   0  0  0  0  0  0  0  0  0  0  0  0
  -12.8459    1.5882    0.0000 C   0  0  0  0  0  0  0  0  0  0  0  0
  -13.8775    2.6772    0.0000 C   0  0  0  0  0  0  0  0  0  0  0  0
  -15.3363    2.3283    0.0000 O   0  0  0  0  0  0  0  0  0  0  0  0
  1  2  1  0
  3  2  1  6
  3  4  1  0
  4  5  1  0
  5  6  1  6
  6  7  1  0
  7  8  1  1
  7  9  1  0
  9 10  1  1
 10 11  1  0
 11 12  2  0
 11 13  1  0
 13 14  1  1
 13 15  1  0
 15 16  2  0
 16 17  1  0
 16 18  1  0
 18 19  1  6
 18 20  1  0
 20 21  1  6
 21 22  1  0
 20 23  1  0
 23 24  2  0
 23 25  1  0
 25 26  1  1
 25 27  1  0
 27 28  1  0
 28 29  1  1
 28 30  1  0
 30 31  2  0
 31 32  1  0
 32 33  2  0
 33 34  1  0
 34 35  2  0
 35 36  1  0
 35 37  1  0
 37 38  1  0
 39 38  1  1
 39 40  1  0
 40 41  1  0
 41 42  1  0
 42 43  1  6
 42 44  1  0
 44 45  1  6
 44 46  1  0
 44 47  1  0
 47 48  2  0
 47 49  1  0
 49 50  2  0
 49 51  1  0
 51 52  1  0
 52 53  1  0
 53 54  1  0
 54 55  1  0
 56 55  1  6
 56 57  1  0
 57 58  2  0
 57 59  1  0
 37 60  1  6
 60 61  1  0
  5 62  1  0
 62 63  1  0
 63 64  1  0
 64 65  1  1
 65 66  1  0
 66 67  1  0
 67 68  1  0
 64  3  1  0
 59  9  1  0
 46 39  1  0
 56 51  1  0
M  END
$$$$
48697
     RDKit          2D

 44 47  0  0  0  0  0  0  0  0999 V2000
    8.2500   -3.8971    0.0000 C   0  0  0  0  0  0  0  0  0  0  0  0
    7.5000   -2.5981    0.0000 O   0  0  0  0  0  0  0  0  0  0  0  0
    6.0000   -2.5981    0.0000 C   0  0  0  0  0  0  0  0  0  0  0  0
    5.2500   -3.8971    0.0000 C   0  0  0  0  0  0  0  0  0  0  0  0
    6.0000   -5.1962    0.0000 O   0  0  0  0  0  0  0  0  0  0  0  0
    5.2500   -6.4952    0.0000 C   0  0  0  0  0  0  0  0  0  0  0  0
    3.7500   -6.4952    0.0000 O   0  0  0  0  0  0  0  0  0  0  0  0
    6.0000   -7.7942    0.0000 N   0  0  0  0  0  0  0  0  0  0  0  0
    3.7500   -3.8971    0.0000 C   0  0  0  0  0  0  0  0  0  0  0  0
    3.0000   -5.1962    0.0000 O   0  0  0  0  0  0  0  0  0  0  0  0
    3.0000   -2.5981    0.0000 C   0  0  0  0  0  0  0  0  0  0  0  0
    1.5000   -2.5981    0.0000 O   0  0  0  0  0  0  0  0  0  0  0  0
    0.7500   -1.2990    0.0000 C   0  0  0  0  0  0  0  0  0  0  0  0
    1.5000    0.0000    0.0000 C   0  0  0  0  0  0  0  0  0  0  0  0
    0.7500    1.2990    0.0000 C   0  0  0  0  0  0  0  0  0  0  0  0
   -0.7500    1.2990    0.0000 C   0  0  0  0  0  0  0  0  0  0  0  0
   -1.5000    2.5981    0.0000 C   0  0  0  0  0  0  0  0  0  0  0  0
   -3.0000    2.5981    0.0000 C   0  0  0  0  0  0  0  0  0  0  0  0
   -3.7500    3.8971    0.0000 N   0  0  0  0  0  0  0  0  0  0  0  0
   -3.0000    5.1962    0.0000 C   0  0  0  0  0  0  0  0  0  0  0  0
   -1.5000    5.1962    0.0000 O   0  0  0  0  0  0  0  0  0  0  0  0
   -3.7500    6.4952    0.0000 C   0  0  0  0  0  0  0  0  0  0  0  0
   -3.0000    7.7942    0.0000 C   0  0  0  0  0  0  0  0  0  0  0  0
   -3.7500    9.0933    0.0000 C   0  0  0  0  0  0  0  0  0  0  0  0
   -5.2500    9.0933    0.0000 C   0  0  0  0  0  0  0  0  0  0  0  0
   -6.0000   10.3923    0.0000 O   0  0  0  0  0  0  0  0  0  0  0  0
   -6.0000    7.7942    0.0000 C   0  0  0  0  0  0  0  0  0  0  0  0
   -7.5000    7.7942    0.0000 C   0  0  0  0  0  0  0  0  0  0  0  0
   -8.2500    6.4952    0.0000 C   0  0  0  0  0  0  0  0  0  0  0  0
   -9.7500    6.4952    0.0000 C   0  0  0  0  0  0  0  0  0  0  0  0
  -10.5000    5.1962    0.0000 C   0  0  0  0  0  0  0  0  0  0  0  0
  -10.5000    7.7942    0.0000 C   0  0  0  0  0  0  0  0  0  0  0  0
   -5.2500    6.4952    0.0000 C   0  0  0  0  0  0  0  0  0  0  0  0
   -3.7500    1.2990    0.0000 C   0  0  0  0  0  0  0  0  0  0  0  0
   -5.2500    1.2990    0.0000 O   0  0  0  0  0  0  0  0  0  0  0  0
   -3.0000    0.0000    0.0000 O   0  0  0  0  0  0  0  0  0  0  0  0
   -1.5000    0.0000    0.0000 C   0  0  0  0  0  0  0  0  0  0  0  0
   -0.7500   -1.2990    0.0000 C   0  0  0  0  0  0  0  0  0  0  0  0
   -1.5000   -2.5981    0.0000 C   0  0  0  0  0  0  0  0  0  0  0  0
   -0.7500    3.8971    0.0000 O   0  0  0  0  0  0  0  0  0  0  0  0
    3.7500   -1.2990    0.0000 O   0  0  0  0  0  0  0  0  0  0  0  0
    5.2500   -1.2990    0.0000 C   0  0  0  0  0  0  0  0  0  0  0  0
    4.9895    0.1782    0.0000 C   0  0  0  0  0  0  0  0  0  0  0  0
    6.6595   -0.7860    0.0000 C   0  0  0  0  0  0  0  0  0  0  0  0
  1  2  1  0
  3  2  1  6
  3  4  1  0
  4  5  1  1
  5  6  1  0
  6  7  2  0
  6  8  1  0
  4  9  1  0
  9 10  1  1
  9 11  1  0
 11 12  1  6
 12 13  1  0
 13 14  2  0
 14 15  1  0
 15 16  2  0
 16 17  1  0
 17 18  2  0
 18 19  1  0
 19 20  1  0
 20 21  2  0
 20 22  1  0
 22 23  2  0
 23 24  1  0
 24 25  2  0
 25 26  1  0
 25 27  1  0
 27 28  1  0
 28 29  1  0
 29 30  2  0
 30 31  1  0
 30 32  1  0
 27 33  2  0
 18 34  1  0
 34 35  2  0
 34 36  1  0
 36 37  1  0
 37 38  2  0
 38 39  1  0
 17 40  1  0
 11 41  1  0
 41 42  1  0
 42 43  1  0
 42 44  1  0
 42  3  1  0
 38 13  1  0
 37 16  1  0
 33 22  1  0
M  END
$$$$
559106
     RDKit          2D

 57 60  0  0  0  0  0  0  0  0999 V2000
   -6.4323   10.5920    0.0000 C   0  0  0  0  0  0  0  0  0  0  0  0
   -6.1599    9.5329    0.0000 O   0  0  0  0  0  0  0  0  0  0  0  0
   -7.0951    8.3602    0.0000 C   0  0  0  0  0  0  0  0  0  0  0  0
   -6.5471    6.9639    0.0000 C   0  0  0  0  0  0  0  0  0  0  0  0
   -7.4823    5.7911    0.0000 C   0  0  0  0  0  0  0  0  0  0  0  0
   -6.9343    4.3948    0.0000 O   0  0  0  0  0  0  0  0  0  0  0  0
   -5.4511    4.1713    0.0000 C   0  0  0  0  0  0  0  0  0  0  0  0
   -5.3390    2.6754    0.0000 C   0  0  0  0  0  0  0  0  0  0  0  0
   -6.7723    2.2333    0.0000 C   0  0  0  0  0  0  0  0  0  0  0  0
   -4.5890    1.3764    0.0000 C   0  0  0  0  0  0  0  0  0  0  0  0
   -5.6886    0.3562    0.0000 O   0  0  0  0  0  0  0  0  0  0  0  0
   -5.3548   -1.1062    0.0000 C   0  0  0  0  0  0  0  0  0  0  0  0
   -3.9214   -1.5484    0.0000 O   0  0  0  0  0  0  0  0  0  0  0  0
   -3.5876   -3.0108    0.0000 C   0  0  0  0  0  0  0  0  0  0  0  0
   -2.1543   -3.4529    0.0000 C   0  0  0  0  0  0  0  0  0  0  0  0
   -4.6872   -4.0310    0.0000 C   0  0  0  0  0  0  0  0  0  0  0  0
   -6.1206   -3.5889    0.0000 C   0  0  0  0  0  0  0  0  0  0  0  0
   -6.4544   -2.1265    0.0000 C   0  0  0  0  0  0  0  0  0  0  0  0
   -7.8877   -1.6844    0.0000 O   0  0  0  0  0  0  0  0  0  0  0  0
   -8.2215   -0.2220    0.0000 C   0  0  0  0  0  0  0  0  0  0  0  0
   -7.1219    0.7983    0.0000 O   0  0  0  0  0  0  0  0  0  0  0  0
   -9.6549    0.2202    0.0000 C   0  0  0  0  0  0  0  0  0  0  0  0
   -7.2201   -4.6092    0.0000 N   0  0  0  0  0  0  0  0  0  0  0  0
   -6.8864   -6.0715    0.0000 C   0  0  0  0  0  0  0  0  0  0  0  0
   -8.6535   -4.1670    0.0000 C   0  0  0  0  0  0  0  0  0  0  0  0
   -3.3496    0.5314    0.0000 C   0  0  0  0  0  0  0  0  0  0  0  0
   -3.5241   -0.8072    0.0000 C   0  0  0  0  0  0  0  0  0  0  0  0
   -1.8664    0.3079    0.0000 C   0  0  0  0  0  0  0  0  0  0  0  0
   -0.4330    0.7500    0.0000 C   0  0  0  0  0  0  0  0  0  0  0  0
    0.8660    0.0000    0.0000 C   0  0  0  0  0  0  0  0  0  0  0  0
   -0.4330   -0.7500    0.0000 O   0  0  0  0  0  0  0  0  0  0  0  0
    0.6666    1.7703    0.0000 C   0  0  0  0  0  0  0  0  0  0  0  0
    1.9059    0.9253    0.0000 O   0  0  0  0  0  0  0  0  0  0  0  0
    1.2146    3.1666    0.0000 C   0  0  0  0  0  0  0  0  0  0  0  0
    2.6595    2.7639    0.0000 C   0  0  0  0  0  0  0  0  0  0  0  0
    1.1025    4.6624    0.0000 C   0  0  0  0  0  0  0  0  0  0  0  0
    2.5358    5.1045    0.0000 O   0  0  0  0  0  0  0  0  0  0  0  0
    3.6354    4.0842    0.0000 C   0  0  0  0  0  0  0  0  0  0  0  0
    3.4824    2.5921    0.0000 O   0  0  0  0  0  0  0  0  0  0  0  0
    5.0688    4.5264    0.0000 C   0  0  0  0  0  0  0  0  0  0  0  0
    0.3525    5.9614    0.0000 C   0  0  0  0  0  0  0  0  0  0  0  0
    1.4521    6.9817    0.0000 C   0  0  0  0  0  0  0  0  0  0  0  0
   -0.8869    6.8064    0.0000 C   0  0  0  0  0  0  0  0  0  0  0  0
   -0.3389    8.2027    0.0000 C   0  0  0  0  0  0  0  0  0  0  0  0
   -2.3701    7.0300    0.0000 O   0  0  0  0  0  0  0  0  0  0  0  0
   -3.8035    6.5878    0.0000 C   0  0  0  0  0  0  0  0  0  0  0  0
   -4.5535    7.8869    0.0000 O   0  0  0  0  0  0  0  0  0  0  0  0
   -4.9031    5.5676    0.0000 C   0  0  0  0  0  0  0  0  0  0  0  0
   -5.9011    6.6873    0.0000 C   0  0  0  0  0  0  0  0  0  0  0  0
   -8.9656    6.0147    0.0000 O   0  0  0  0  0  0  0  0  0  0  0  0
   -9.5136    7.4110    0.0000 C   0  0  0  0  0  0  0  0  0  0  0  0
  -10.9968    7.6346    0.0000 C   0  0  0  0  0  0  0  0  0  0  0  0
   -8.5784    8.5837    0.0000 C   0  0  0  0  0  0  0  0  0  0  0  0
   -9.1264    9.9801    0.0000 O   0  0  0  0  0  0  0  0  0  0  0  0
   -8.1911   11.1528    0.0000 C   0  0  0  0  0  0  0  0  0  0  0  0
   -7.0980   11.1228    0.0000 O   0  0  0  0  0  0  0  0  0  0  0  0
   -8.7391   12.5491    0.0000 C   0  0  0  0  0  0  0  0  0  0  0  0
  1  2  1  0
  3  2  1  1
  3  4  1  0
  4  5  1  0
  5  6  1  6
  7  6  1  6
  7  8  1  0
  8  9  1  1
  8 10  1  0
 10 11  1  6
 12 11  1  6
 12 13  1  0
 13 14  1  0
 14 15  1  6
 14 16  1  0
 16 17  1  0
 17 18  1  0
 18 19  1  1
 19 20  1  0
 20 21  2  0
 20 22  1  0
 17 23  1  6
 23 24  1  0
 23 25  1  0
 10 26  1  0
 26 27  1  6
 26 28  1  0
 29 28  1  6
 29 30  1  0
 30 31  1  0
 29 32  1  0
 32 33  2  0
 32 34  1  0
 34 35  1  1
 34 36  1  0
 36 37  1  6
 37 38  1  0
 38 39  2  0
 38 40  1  0
 36 41  1  0
 41 42  1  6
 41 43  1  0
 43 44  1  6
 43 45  1  0
 45 46  1  0
 46 47  2  0
 46 48  1  0
 48 49  1  1
  5 50  1  0
 50 51  1  0
 51 52  1  1
 51 53  1  0
 53 54  1  6
 54 55  1  0
 55 56  2  0
 55 57  1  0
 53  3  1  0
 48  7  1  0
 18 12  1  0
 31 29  1  0
M  END
$$$$
573926
     RDKit          2D

 21 24  0  0  0  0  0  0  0  0999 V2000
   -4.8521    3.5390    0.0000 C   0  0  0  0  0  0  0  0  0  0  0  0
   -5.0756    2.0557    0.0000 O   0  0  0  0  0  0  0  0  0  0  0  0
   -3.9029    1.1205    0.0000 C   0  0  0  0  0  0  0  0  0  0  0  0
   -2.5066    1.6685    0.0000 O   0  0  0  0  0  0  0  0  0  0  0  0
   -1.3338    0.7332    0.0000 C   0  0  0  0  0  0  0  0  0  0  0  0
    0.1369    0.4384    0.0000 O   0  0  0  0  0  0  0  0  0  0  0  0
    1.0777    1.3515    0.0000 C   0  0  0  0  0  0  0  0  0  0  0  0
    2.0130    2.5242    0.0000 C   0  0  0  0  0  0  0  0  0  0  0  0
    1.7286    0.0000    0.0000 C   0  0  0  0  0  0  0  0  0  0  0  0
    1.0777   -1.3515    0.0000 C   0  0  0  0  0  0  0  0  0  0  0  0
   -0.3846   -1.6852    0.0000 C   0  0  0  0  0  0  0  0  0  0  0  0
   -0.6082   -3.1685    0.0000 C   0  0  0  0  0  0  0  0  0  0  0  0
    0.5645   -4.1037    0.0000 C   0  0  0  0  0  0  0  0  0  0  0  0
   -2.0045   -3.7165    0.0000 C   0  0  0  0  0  0  0  0  0  0  0  0
   -3.1773   -2.7813    0.0000 C   0  0  0  0  0  0  0  0  0  0  0  0
   -2.9537   -1.2980    0.0000 C   0  0  0  0  0  0  0  0  0  0  0  0
   -4.1264   -0.3628    0.0000 C   0  0  0  0  0  0  0  0  0  0  0  0
   -5.5228   -0.9108    0.0000 C   0  0  0  0  0  0  0  0  0  0  0  0
   -1.5574   -0.7500    0.0000 C   0  0  0  0  0  0  0  0  0  0  0  0
   -0.3372    0.2231    0.0000 O   0  0  0  0  0  0  0  0  0  0  0  0
   -0.1425    0.3784    0.0000 O   0  0  0  0  0  0  0  0  0  0  0  0
  1  2  1  0
  3  2  1  1
  3  4  1  0
  5  4  1  6
  5  6  1  0
  6  7  1  0
  7  8  1  1
  7  9  1  0
  9 10  1  0
 11 10  1  1
 11 12  1  0
 12 13  1  6
 12 14  1  0
 14 15  1  0
 16 15  1  1
 16 17  1  0
 17 18  1  1
 16 19  1  0
 19 20  1  6
 20 21  1  0
 17  3  1  0
 19  5  1  0
 21  7  1  0
 19 11  1  0
M  END
$$$$
43952
     RDKit          2D

 44 49  0  0  0  0  0  0  0  0999 V2000
    3.0134  -12.2195    0.0000 C   0  0  0  0  0  0  0  0  0  0  0  0
    3.1702  -10.7277    0.0000 O   0  0  0  0  0  0  0  0  0  0  0  0
    1.9567   -9.8460    0.0000 C   0  0  0  0  0  0  0  0  0  0  0  0
    0.5864  -10.4561    0.0000 C   0  0  0  0  0  0  0  0  0  0  0  0
   -0.6272   -9.5744    0.0000 C   0  0  0  0  0  0  0  0  0  0  0  0
   -0.4704   -8.0826    0.0000 C   0  0  0  0  0  0  0  0  0  0  0  0
   -1.6839   -7.2010    0.0000 C   0  0  0  0  0  0  0  0  0  0  0  0
   -1.5271   -5.7092    0.0000 N   0  0  0  0  0  0  0  0  0  0  0  0
   -2.7406   -4.8275    0.0000 C   0  0  0  0  0  0  0  0  0  0  0  0
   -2.5838   -3.3357    0.0000 C   0  0  0  0  0  0  0  0  0  0  0  0
   -1.2135   -2.7256    0.0000 C   0  0  0  0  0  0  0  0  0  0  0  0
   -0.0000   -3.6073    0.0000 C   0  0  0  0  0  0  0  0  0  0  0  0
    1.2135   -2.7256    0.0000 N   0  0  0  0  0  0  0  0  0  0  0  0
    0.7500   -1.2990    0.0000 C   0  0  0  0  0  0  0  0  0  0  0  0
    1.5000    0.0000    0.0000 C   0  0  0  0  0  0  0  0  0  0  0  0
    0.7500    1.2990    0.0000 C   0  0  0  0  0  0  0  0  0  0  0  0
    1.5000    2.5981    0.0000 O   0  0  0  0  0  0  0  0  0  0  0  0
    3.0000    2.5981    0.0000 C   0  0  0  0  0  0  0  0  0  0  0  0
   -0.7500    1.2990    0.0000 C   0  0  0  0  0  0  0  0  0  0  0  0
   -1.5000    0.0000    0.0000 C   0  0  0  0  0  0  0  0  0  0  0  0
   -0.7500   -1.2990    0.0000 C   0  0  0  0  0  0  0  0  0  0  0  0
   -0.1568   -5.0991    0.0000 C   0  0  0  0  0  0  0  0  0  0  0  0
    1.0567   -5.9808    0.0000 C   0  0  0  0  0  0  0  0  0  0  0  0
    0.8999   -7.4725    0.0000 C   0  0  0  0  0  0  0  0  0  0  0  0
    2.1135   -8.3542    0.0000 C   0  0  0  0  0  0  0  0  0  0  0  0
    3.4838   -7.7441    0.0000 C   0  0  0  0  0  0  0  0  0  0  0  0
    3.6406   -6.2523    0.0000 O   0  0  0  0  0  0  0  0  0  0  0  0
    4.6973   -8.6258    0.0000 O   0  0  0  0  0  0  0  0  0  0  0  0
    6.0676   -8.0157    0.0000 C   0  0  0  0  0  0  0  0  0  0  0  0
    0.4296  -11.9479    0.0000 O   0  0  0  0  0  0  0  0  0  0  0  0
   -0.9408  -12.5580    0.0000 C   0  0  0  0  0  0  0  0  0  0  0  0
   -2.1543  -11.6763    0.0000 O   0  0  0  0  0  0  0  0  0  0  0  0
   -1.0975  -14.0498    0.0000 C   0  0  0  0  0  0  0  0  0  0  0  0
   -2.4679  -14.6599    0.0000 C   0  0  0  0  0  0  0  0  0  0  0  0
   -2.6247  -16.1517    0.0000 C   0  0  0  0  0  0  0  0  0  0  0  0
   -3.9950  -16.7618    0.0000 O   0  0  0  0  0  0  0  0  0  0  0  0
   -5.2085  -15.8801    0.0000 C   0  0  0  0  0  0  0  0  0  0  0  0
   -1.4111  -17.0333    0.0000 C   0  0  0  0  0  0  0  0  0  0  0  0
   -1.5679  -18.5251    0.0000 O   0  0  0  0  0  0  0  0  0  0  0  0
   -0.3544  -19.4068    0.0000 C   0  0  0  0  0  0  0  0  0  0  0  0
   -0.0408  -16.4232    0.0000 C   0  0  0  0  0  0  0  0  0  0  0  0
    1.1727  -17.3049    0.0000 O   0  0  0  0  0  0  0  0  0  0  0  0
    2.5430  -16.6948    0.0000 C   0  0  0  0  0  0  0  0  0  0  0  0
    0.1160  -14.9315    0.0000 C   0  0  0  0  0  0  0  0  0  0  0  0
  1  2  1  0
  3  2  1  1
  3  4  1  0
  4  5  1  0
  6  5  1  6
  6  7  1  0
  7  8  1  0
  8  9  1  0
  9 10  1  0
 10 11  1  0
 11 12  2  0
 12 13  1  0
 13 14  1  0
 14 15  2  0
 15 16  1  0
 16 17  1  0
 17 18  1  0
 16 19  2  0
 19 20  1  0
 20 21  2  0
 12 22  1  0
 22 23  1  1
 24 23  1  6
 24 25  1  0
 25 26  1  6
 26 27  2  0
 26 28  1  0
 28 29  1  0
  4 30  1  6
 30 31  1  0
 31 32  2  0
 31 33  1  0
 33 34  2  0
 34 35  1  0
 35 36  1  0
 36 37  1  0
 35 38  2  0
 38 39  1  0
 39 40  1  0
 38 41  1  0
 41 42  1  0
 42 43  1  0
 41 44  2  0
 25  3  1  0
 24  6  1  0
 22  8  1  0
 21 11  1  0
 21 14  1  0
 44 33  1  0
M  END
$$$$
503213
     RDKit          2D

 46 51  0  0  0  0  0  0  0  0999 V2000
    3.0134  -12.2195    0.0000 C   0  0  0  0  0  0  0  0  0  0  0  0
    3.1702  -10.7277    0.0000 O   0  0  0  0  0  0  0  0  0  0  0  0
    1.9567   -9.8460    0.0000 C   0  0  0  0  0  0  0  0  0  0  0  0
    0.5864  -10.4561    0.0000 C   0  0  0  0  0  0  0  0  0  0  0  0
   -0.6272   -9.5744    0.0000 C   0  0  0  0  0  0  0  0  0  0  0  0
   -0.4704   -8.0826    0.0000 C   0  0  0  0  0  0  0  0  0  0  0  0
   -1.6839   -7.2010    0.0000 C   0  0  0  0  0  0  0  0  0  0  0  0
   -1.5271   -5.7092    0.0000 N   0  0  0  0  0  0  0  0  0  0  0  0
   -2.7406   -4.8275    0.0000 C   0  0  0  0  0  0  0  0  0  0  0  0
   -2.5838   -3.3357    0.0000 C   0  0  0  0  0  0  0  0  0  0  0  0
   -1.2135   -2.7256    0.0000 C   0  0  0  0  0  0  0  0  0  0  0  0
   -0.0000   -3.6073    0.0000 C   0  0  0  0  0  0  0  0  0  0  0  0
    1.2135   -2.7256    0.0000 N   0  0  0  0  0  0  0  0  0  0  0  0
    0.7500   -1.2990    0.0000 C   0  0  0  0  0  0  0  0  0  0  0  0
    1.5000    0.0000    0.0000 C   0  0  0  0  0  0  0  0  0  0  0  0
    0.7500    1.2990    0.0000 C   0  0  0  0  0  0  0  0  0  0  0  0
    1.5000    2.5981    0.0000 O   0  0  0  0  0  0  0  0  0  0  0  0
    3.0000    2.5981    0.0000 C   0  0  0  0  0  0  0  0  0  0  0  0
   -0.7500    1.2990    0.0000 C   0  0  0  0  0  0  0  0  0  0  0  0
   -1.5000    0.0000    0.0000 C   0  0  0  0  0  0  0  0  0  0  0  0
   -0.7500   -1.2990    0.0000 C   0  0  0  0  0  0  0  0  0  0  0  0
   -0.1568   -5.0991    0.0000 C   0  0  0  0  0  0  0  0  0  0  0  0
    1.0567   -5.9808    0.0000 C   0  0  0  0  0  0  0  0  0  0  0  0
    0.8999   -7.4725    0.0000 C   0  0  0  0  0  0  0  0  0  0  0  0
    2.1135   -8.3542    0.0000 C   0  0  0  0  0  0  0  0  0  0  0  0
    3.4838   -7.7441    0.0000 C   0  0  0  0  0  0  0  0  0  0  0  0
    3.6406   -6.2523    0.0000 O   0  0  0  0  0  0  0  0  0  0  0  0
    4.6973   -8.6258    0.0000 O   0  0  0  0  0  0  0  0  0  0  0  0
    6.0676   -8.0157    0.0000 C   0  0  0  0  0  0  0  0  0  0  0  0
    0.4296  -11.9479    0.0000 O   0  0  0  0  0  0  0  0  0  0  0  0
   -0.9408  -12.5580    0.0000 C   0  0  0  0  0  0  0  0  0  0  0  0
   -2.1543  -11.6763    0.0000 O   0  0  0  0  0  0  0  0  0  0  0  0
   -1.0975  -14.0498    0.0000 C   0  0  0  0  0  0  0  0  0  0  0  0
   -2.4679  -14.6599    0.0000 C   0  0  0  0  0  0  0  0  0  0  0  0
   -2.6247  -16.1517    0.0000 C   0  0  0  0  0  0  0  0  0  0  0  0
   -3.9950  -16.7618    0.0000 C   0  0  0  0  0  0  0  0  0  0  0  0
   -4.1518  -18.2536    0.0000 C   0  0  0  0  0  0  0  0  0  0  0  0
   -5.5221  -18.8637    0.0000 O   0  0  0  0  0  0  0  0  0  0  0  0
   -6.7356  -17.9820    0.0000 C   0  0  0  0  0  0  0  0  0  0  0  0
   -2.9382  -19.1352    0.0000 C   0  0  0  0  0  0  0  0  0  0  0  0
   -3.0950  -20.6270    0.0000 O   0  0  0  0  0  0  0  0  0  0  0  0
   -1.8815  -21.5087    0.0000 C   0  0  0  0  0  0  0  0  0  0  0  0
   -1.5679  -18.5251    0.0000 C   0  0  0  0  0  0  0  0  0  0  0  0
   -0.3544  -19.4068    0.0000 O   0  0  0  0  0  0  0  0  0  0  0  0
    1.0159  -18.7967    0.0000 C   0  0  0  0  0  0  0  0  0  0  0  0
   -1.4111  -17.0333    0.0000 C   0  0  0  0  0  0  0  0  0  0  0  0
  1  2  1  0
  3  2  1  1
  3  4  1  0
  4  5  1  0
  6  5  1  6
  6  7  1  0
  7  8  1  0
  8  9  1  0
  9 10  1  0
 10 11  1  0
 11 12  2  0
 12 13  1  0
 13 14  1  0
 14 15  2  0
 15 16  1  0
 16 17  1  0
 17 18  1  0
 16 19  2  0
 19 20  1  0
 20 21  2  0
 12 22  1  0
 22 23  1  1
 24 23  1  6
 24 25  1  0
 25 26  1  6
 26 27  2  0
 26 28  1  0
 28 29  1  0
  4 30  1  6
 30 31  1  0
 31 32  2  0
 31 33  1  0
 33 34  2  0
 34 35  1  0
 35 36  2  0
 36 37  1  0
 37 38  1  0
 38 39  1  0
 37 40  2  0
 40 41  1  0
 41 42  1  0
 40 43  1  0
 43 44  1  0
 44 45  1  0
 43 46  2  0
 25  3  1  0
 24  6  1  0
 22  8  1  0
 21 11  1  0
 21 14  1  0
 46 35  1  0
M  END
$$$$
674466
     RDKit          2D

 42 47  0  0  0  0  0  0  0  0999 V2000
    3.0134  -12.2195    0.0000 C   0  0  0  0  0  0  0  0  0  0  0  0
    3.1702  -10.7277    0.0000 O   0  0  0  0  0  0  0  0  0  0  0  0
    1.9567   -9.8460    0.0000 C   0  0  0  0  0  0  0  0  0  0  0  0
    0.5864  -10.4561    0.0000 C   0  0  0  0  0  0  0  0  0  0  0  0
   -0.6272   -9.5744    0.0000 C   0  0  0  0  0  0  0  0  0  0  0  0
   -0.4704   -8.0826    0.0000 C   0  0  0  0  0  0  0  0  0  0  0  0
   -1.6839   -7.2010    0.0000 C   0  0  0  0  0  0  0  0  0  0  0  0
   -1.5271   -5.7092    0.0000 N   0  0  0  0  0  0  0  0  0  0  0  0
   -2.7406   -4.8275    0.0000 C   0  0  0  0  0  0  0  0  0  0  0  0
   -2.5838   -3.3357    0.0000 C   0  0  0  0  0  0  0  0  0  0  0  0
   -1.2135   -2.7256    0.0000 C   0  0  0  0  0  0  0  0  0  0  0  0
   -0.0000   -3.6073    0.0000 C   0  0  0  0  0  0  0  0  0  0  0  0
    1.2135   -2.7256    0.0000 N   0  0  0  0  0  0  0  0  0  0  0  0
    0.7500   -1.2990    0.0000 C   0  0  0  0  0  0  0  0  0  0  0  0
    1.5000    0.0000    0.0000 C   0  0  0  0  0  0  0  0  0  0  0  0
    0.7500    1.2990    0.0000 C   0  0  0  0  0  0  0  0  0  0  0  0
   -0.7500    1.2990    0.0000 C   0  0  0  0  0  0  0  0  0  0  0  0
   -1.5000    0.0000    0.0000 C   0  0  0  0  0  0  0  0  0  0  0  0
   -0.7500   -1.2990    0.0000 C   0  0  0  0  0  0  0  0  0  0  0  0
   -0.1568   -5.0991    0.0000 C   0  0  0  0  0  0  0  0  0  0  0  0
    1.0567   -5.9808    0.0000 C   0  0  0  0  0  0  0  0  0  0  0  0
    0.8999   -7.4725    0.0000 C   0  0  0  0  0  0  0  0  0  0  0  0
    2.1135   -8.3542    0.0000 C   0  0  0  0  0  0  0  0  0  0  0  0
    3.4838   -7.7441    0.0000 C   0  0  0  0  0  0  0  0  0  0  0  0
    3.6406   -6.2523    0.0000 O   0  0  0  0  0  0  0  0  0  0  0  0
    4.6973   -8.6258    0.0000 O   0  0  0  0  0  0  0  0  0  0  0  0
    6.0676   -8.0157    0.0000 C   0  0  0  0  0  0  0  0  0  0  0  0
    0.4296  -11.9479    0.0000 O   0  0  0  0  0  0  0  0  0  0  0  0
   -0.9408  -12.5580    0.0000 C   0  0  0  0  0  0  0  0  0  0  0  0
   -2.1543  -11.6763    0.0000 O   0  0  0  0  0  0  0  0  0  0  0  0
   -1.0975  -14.0498    0.0000 C   0  0  0  0  0  0  0  0  0  0  0  0
   -2.4679  -14.6599    0.0000 C   0  0  0  0  0  0  0  0  0  0  0  0
   -2.6247  -16.1517    0.0000 C   0  0  0  0  0  0  0  0  0  0  0  0
   -3.9950  -16.7618    0.0000 O   0  0  0  0  0  0  0  0  0  0  0  0
   -5.2085  -15.8801    0.0000 C   0  0  0  0  0  0  0  0  0  0  0  0
   -1.4111  -17.0333    0.0000 C   0  0  0  0  0  0  0  0  0  0  0  0
   -1.5679  -18.5251    0.0000 O   0  0  0  0  0  0  0  0  0  0  0  0
   -0.3544  -19.4068    0.0000 C   0  0  0  0  0  0  0  0  0  0  0  0
   -0.0408  -16.4232    0.0000 C   0  0  0  0  0  0  0  0  0  0  0  0
    1.1727  -17.3049    0.0000 O   0  0  0  0  0  0  0  0  0  0  0  0
    2.5430  -16.6948    0.0000 C   0  0  0  0  0  0  0  0  0  0  0  0
    0.1160  -14.9315    0.0000 C   0  0  0  0  0  0  0  0  0  0  0  0
  1  2  1  0
  3  2  1  1
  3  4  1  0
  4  5  1  0
  6  5  1  6
  6  7  1  0
  7  8  1  0
  8  9  1  0
  9 10  1  0
 10 11  1  0
 11 12  2  0
 12 13  1  0
 13 14  1  0
 14 15  2  0
 15 16  1  0
 16 17  2  0
 17 18  1  0
 18 19  2  0
 12 20  1  0
 20 21  1  1
 22 21  1  6
 22 23  1  0
 23 24  1  6
 24 25  2  0
 24 26  1  0
 26 27  1  0
  4 28  1  6
 28 29  1  0
 29 30  2  0
 29 31  1  0
 31 32  2  0
 32 33  1  0
 33 34  1  0
 34 35  1  0
 33 36  2  0
 36 37  1  0
 37 38  1  0
 36 39  1  0
 39 40  1  0
 40 41  1  0
 39 42  2  0
 23  3  1  0
 22  6  1  0
 20  8  1  0
 19 11  1  0
 19 14  1  0
 42 31  1  0
M  END
$$$$
397074
     RDKit          2D

 61 66  0  0  0  0  0  0  0  0999 V2000
   12.8497   -7.9874    0.0000 C   0  0  0  0  0  0  0  0  0  0  0  0
   11.9365   -9.1774    0.0000 O   0  0  0  0  0  0  0  0  0  0  0  0
   10.4494   -8.9816    0.0000 C   0  0  0  0  0  0  0  0  0  0  0  0
   10.4494   -7.4816    0.0000 C   0  0  0  0  0  0  0  0  0  0  0  0
   10.0611   -6.0328    0.0000 C   0  0  0  0  0  0  0  0  0  0  0  0
    9.3111   -4.7337    0.0000 O   0  0  0  0  0  0  0  0  0  0  0  0
    8.2505   -3.6731    0.0000 C   0  0  0  0  0  0  0  0  0  0  0  0
    9.1636   -2.4830    0.0000 C   0  0  0  0  0  0  0  0  0  0  0  0
    8.1630   -2.1756    0.0000 O   0  0  0  0  0  0  0  0  0  0  0  0
    6.2525   -1.2358    0.0000 C   0  0  0  0  0  0  0  0  0  0  0  0
    5.5025    0.0633    0.0000 C   0  0  0  0  0  0  0  0  0  0  0  0
    6.2525    1.3623    0.0000 C   0  0  0  0  0  0  0  0  0  0  0  0
    4.0025    0.0633    0.0000 C   0  0  0  0  0  0  0  0  0  0  0  0
    3.2525    1.3623    0.0000 O   0  0  0  0  0  0  0  0  0  0  0  0
    3.2525   -1.2358    0.0000 C   0  0  0  0  0  0  0  0  0  0  0  0
    1.7345   -2.8547    0.0000 C   0  0  0  0  0  0  0  0  0  0  0  0
    2.7428   -5.2369    0.0000 O   0  0  0  0  0  0  0  0  0  0  0  0
    0.1940   -4.7337    0.0000 C   0  0  0  0  0  0  0  0  0  0  0  0
    1.2546   -3.6731    0.0000 C   0  0  0  0  0  0  0  0  0  0  0  0
    0.1399   -2.6694    0.0000 N   0  0  0  0  0  0  0  0  0  0  0  0
    0.7500   -1.2990    0.0000 C   0  0  0  0  0  0  0  0  0  0  0  0
    1.5000    0.0000    0.0000 C   0  0  0  0  0  0  0  0  0  0  0  0
    0.7500    1.2990    0.0000 C   0  0  0  0  0  0  0  0  0  0  0  0
   -0.7500    1.2990    0.0000 N   0  0  0  0  0  0  0  0  0  0  0  0
   -1.5000    2.5981    0.0000 C   0  0  0  0  0  0  0  0  0  0  0  0
   -0.7500    3.8971    0.0000 C   0  0  0  0  0  0  0  0  0  0  0  0
   -1.5000    5.1962    0.0000 C   0  0  0  0  0  0  0  0  0  0  0  0
    0.7500    3.8971    0.0000 C   0  0  0  0  0  0  0  0  0  0  0  0
   -1.5000    0.0000    0.0000 C   0  0  0  0  0  0  0  0  0  0  0  0
   -0.7500   -1.2990    0.0000 C   0  0  0  0  0  0  0  0  0  0  0  0
    2.2418   -1.4558    0.0000 N   0  0  0  0  0  0  0  0  0  0  0  0
    2.5537   -2.9231    0.0000 C   0  0  0  0  0  0  0  0  0  0  0  0
    4.0025   -2.5348    0.0000 C   0  0  0  0  0  0  0  0  0  0  0  0
    5.5025   -2.5348    0.0000 C   0  0  0  0  0  0  0  0  0  0  0  0
    6.9514   -2.9231    0.0000 C   0  0  0  0  0  0  0  0  0  0  0  0
    7.1731   -1.4395    0.0000 O   0  0  0  0  0  0  0  0  0  0  0  0
   -0.5560   -6.0328    0.0000 N   0  0  0  0  0  0  0  0  0  0  0  0
   -0.9443   -7.4816    0.0000 C   0  0  0  0  0  0  0  0  0  0  0  0
   -2.4314   -7.2858    0.0000 O   0  0  0  0  0  0  0  0  0  0  0  0
   -0.9443   -8.9816    0.0000 C   0  0  0  0  0  0  0  0  0  0  0  0
   -0.5560  -10.4305    0.0000 C   0  0  0  0  0  0  0  0  0  0  0  0
    0.1940  -11.7296    0.0000 C   0  0  0  0  0  0  0  0  0  0  0  0
    1.2546  -12.7902    0.0000 C   0  0  0  0  0  0  0  0  0  0  0  0
    2.5537  -13.5402    0.0000 C   0  0  0  0  0  0  0  0  0  0  0  0
    1.9796  -14.9260    0.0000 C   0  0  0  0  0  0  0  0  0  0  0  0
    4.0025  -13.9285    0.0000 C   0  0  0  0  0  0  0  0  0  0  0  0
    3.8067  -15.4156    0.0000 O   0  0  0  0  0  0  0  0  0  0  0  0
    5.5025  -13.9285    0.0000 C   0  0  0  0  0  0  0  0  0  0  0  0
    5.6983  -15.4156    0.0000 C   0  0  0  0  0  0  0  0  0  0  0  0
    6.9514  -13.5402    0.0000 C   0  0  0  0  0  0  0  0  0  0  0  0
    7.5255  -14.9260    0.0000 O   0  0  0  0  0  0  0  0  0  0  0  0
    8.2505  -12.7902    0.0000 C   0  0  0  0  0  0  0  0  0  0  0  0
    8.9356  -13.9534    0.0000 C   0  0  0  0  0  0  0  0  0  0  0  0
    9.3111  -11.7296    0.0000 C   0  0  0  0  0  0  0  0  0  0  0  0
   10.5012  -12.6427    0.0000 O   0  0  0  0  0  0  0  0  0  0  0  0
   10.3054  -14.1299    0.0000 C   0  0  0  0  0  0  0  0  0  0  0  0
    9.1304  -14.7947    0.0000 O   0  0  0  0  0  0  0  0  0  0  0  0
   11.4954  -15.0430    0.0000 C   0  0  0  0  0  0  0  0  0  0  0  0
   10.0611  -10.4305    0.0000 C   0  0  0  0  0  0  0  0  0  0  0  0
   11.4469  -11.0046    0.0000 C   0  0  0  0  0  0  0  0  0  0  0  0
   -2.4314   -9.1774    0.0000 C   0  0  0  0  0  0  0  0  0  0  0  0
  1  2  1  0
  3  2  1  6
  3  4  1  0
  4  5  2  0
  5  6  1  0
  6  7  1  0
  7  8  1  1
  7  9  1  0
  9 10  1  0
 10 11  2  0
 11 12  1  0
 11 13  1  0
 13 14  1  0
 13 15  2  0
 15 16  1  0
 16 17  2  0
 16 18  1  0
 18 19  2  0
 19 20  1  0
 20 21  1  0
 21 22  1  0
 22 23  1  0
 23 24  1  0
 24 25  1  0
 25 26  1  0
 26 27  1  0
 26 28  1  0
 24 29  1  0
 29 30  1  0
 21 31  1  0
 31 32  2  0
 32 33  1  0
 33 34  2  0
 34 35  1  0
 35 36  2  0
 18 37  1  0
 37 38  1  0
 38 39  2  0
 38 40  1  0
 40 41  2  0
 41 42  1  0
 42 43  2  0
 43 44  1  0
 44 45  1  1
 44 46  1  0
 46 47  1  1
 46 48  1  0
 48 49  1  6
 48 50  1  0
 50 51  1  6
 50 52  1  0
 52 53  1  6
 52 54  1  0
 54 55  1  1
 55 56  1  0
 56 57  2  0
 56 58  1  0
 54 59  1  0
 59 60  1  1
 40 61  1  0
 59  3  1  0
 35  7  1  0
 34 10  1  0
 33 15  1  0
 32 19  1  0
 30 21  1  0
M  END
$$$$
365189
     RDKit          2D

 59 63  0  0  0  0  0  0  0  0999 V2000
    0.4940    8.3646    0.0000 C   0  0  0  0  0  0  0  0  0  0  0  0
   -1.0057    8.3332    0.0000 O   0  0  0  0  0  0  0  0  0  0  0  0
   -1.7283    7.0188    0.0000 C   0  0  0  0  0  0  0  0  0  0  0  0
   -0.5195    6.1307    0.0000 C   0  0  0  0  0  0  0  0  0  0  0  0
    0.4184    4.9601    0.0000 C   0  0  0  0  0  0  0  0  0  0  0  0
    1.0212    3.5866    0.0000 O   0  0  0  0  0  0  0  0  0  0  0  0
    0.3943    1.2135    0.0000 C   0  0  0  0  0  0  0  0  0  0  0  0
    0.8578    2.6401    0.0000 C   0  0  0  0  0  0  0  0  0  0  0  0
    1.2760    0.0000    0.0000 O   0  0  0  0  0  0  0  0  0  0  0  0
    0.3943   -1.2135    0.0000 C   0  0  0  0  0  0  0  0  0  0  0  0
    0.7062   -2.6807    0.0000 C   0  0  0  0  0  0  0  0  0  0  0  0
    2.1328   -3.1443    0.0000 C   0  0  0  0  0  0  0  0  0  0  0  0
   -0.4086   -3.6844    0.0000 C   0  0  0  0  0  0  0  0  0  0  0  0
   -0.0967   -5.1517    0.0000 O   0  0  0  0  0  0  0  0  0  0  0  0
   -1.8351   -3.2209    0.0000 C   0  0  0  0  0  0  0  0  0  0  0  0
   -2.9499   -4.2246    0.0000 C   0  0  0  0  0  0  0  0  0  0  0  0
   -2.6380   -5.6918    0.0000 O   0  0  0  0  0  0  0  0  0  0  0  0
   -4.3764   -3.7611    0.0000 C   0  0  0  0  0  0  0  0  0  0  0  0
   -5.8674   -3.5964    0.0000 N   0  0  0  0  0  0  0  0  0  0  0  0
   -7.2649   -3.0515    0.0000 C   0  0  0  0  0  0  0  0  0  0  0  0
   -7.9876   -4.3660    0.0000 O   0  0  0  0  0  0  0  0  0  0  0  0
   -8.4738   -2.1635    0.0000 C   0  0  0  0  0  0  0  0  0  0  0  0
   -9.4116   -0.9928    0.0000 C   0  0  0  0  0  0  0  0  0  0  0  0
  -10.0145    0.3807    0.0000 C   0  0  0  0  0  0  0  0  0  0  0  0
  -10.2413    1.8634    0.0000 C   0  0  0  0  0  0  0  0  0  0  0  0
  -10.0767    3.3544    0.0000 C   0  0  0  0  0  0  0  0  0  0  0  0
  -11.5334    3.7122    0.0000 C   0  0  0  0  0  0  0  0  0  0  0  0
   -9.5318    4.7519    0.0000 C   0  0  0  0  0  0  0  0  0  0  0  0
  -10.8462    5.4746    0.0000 O   0  0  0  0  0  0  0  0  0  0  0  0
   -8.6437    5.9608    0.0000 C   0  0  0  0  0  0  0  0  0  0  0  0
   -9.7263    6.9990    0.0000 C   0  0  0  0  0  0  0  0  0  0  0  0
   -7.4731    6.8986    0.0000 C   0  0  0  0  0  0  0  0  0  0  0  0
   -8.2501    8.1817    0.0000 O   0  0  0  0  0  0  0  0  0  0  0  0
   -6.0995    7.5015    0.0000 C   0  0  0  0  0  0  0  0  0  0  0  0
   -6.5180    8.9419    0.0000 C   0  0  0  0  0  0  0  0  0  0  0  0
   -4.6168    7.7283    0.0000 C   0  0  0  0  0  0  0  0  0  0  0  0
   -4.6482    9.2280    0.0000 O   0  0  0  0  0  0  0  0  0  0  0  0
   -3.3651   10.0050    0.0000 C   0  0  0  0  0  0  0  0  0  0  0  0
   -3.3965   11.5047    0.0000 O   0  0  0  0  0  0  0  0  0  0  0  0
   -2.0507    9.2824    0.0000 C   0  0  0  0  0  0  0  0  0  0  0  0
   -3.1259    7.5637    0.0000 C   0  0  0  0  0  0  0  0  0  0  0  0
   -2.7680    9.0204    0.0000 C   0  0  0  0  0  0  0  0  0  0  0  0
   -9.5120   -3.2461    0.0000 C   0  0  0  0  0  0  0  0  0  0  0  0
   -4.6883   -2.2939    0.0000 C   0  0  0  0  0  0  0  0  0  0  0  0
   -6.1149   -1.8303    0.0000 C   0  0  0  0  0  0  0  0  0  0  0  0
   -6.4268   -0.3631    0.0000 N   0  0  0  0  0  0  0  0  0  0  0  0
   -7.8533    0.1004    0.0000 N   0  0  0  0  0  0  0  0  0  0  0  0
   -8.9681   -0.9033    0.0000 C   0  0  0  0  0  0  0  0  0  0  0  0
  -10.3946   -0.4398    0.0000 C   0  0  0  0  0  0  0  0  0  0  0  0
  -10.7065    1.0275    0.0000 N   0  0  0  0  0  0  0  0  0  0  0  0
  -12.1331    1.4910    0.0000 C   0  0  0  0  0  0  0  0  0  0  0  0
   -9.5918    2.0312    0.0000 C   0  0  0  0  0  0  0  0  0  0  0  0
   -8.1652    1.5676    0.0000 C   0  0  0  0  0  0  0  0  0  0  0  0
   -3.5736   -1.2902    0.0000 C   0  0  0  0  0  0  0  0  0  0  0  0
   -3.8855    0.1771    0.0000 O   0  0  0  0  0  0  0  0  0  0  0  0
   -2.1470   -1.7537    0.0000 C   0  0  0  0  0  0  0  0  0  0  0  0
   -1.0323   -0.7500    0.0000 C   0  0  0  0  0  0  0  0  0  0  0  0
   -1.0323    0.7500    0.0000 C   0  0  0  0  0  0  0  0  0  0  0  0
   -2.2458    1.6317    0.0000 O   0  0  0  0  0  0  0  0  0  0  0  0
  1  2  1  0
  3  2  1  1
  3  4  1  0
  4  5  2  0
  5  6  1  0
  6  7  1  0
  7  8  1  6
  7  9  1  0
  9 10  1  0
 10 11  2  0
 11 12  1  0
 11 13  1  0
 13 14  1  0
 13 15  2  0
 15 16  1  0
 16 17  1  0
 16 18  2  0
 18 19  1  0
 19 20  1  0
 20 21  2  0
 20 22  1  0
 22 23  2  0
 23 24  1  0
 24 25  2  0
 25 26  1  0
 26 27  1  6
 26 28  1  0
 28 29  1  6
 28 30  1  0
 30 31  1  1
 30 32  1  0
 32 33  1  1
 32 34  1  0
 34 35  1  1
 34 36  1  0
 36 37  1  6
 37 38  1  0
 38 39  2  0
 38 40  1  0
 36 41  1  0
 41 42  1  6
 22 43  1  0
 18 44  1  0
 44 45  1  0
 45 46  2  0
 46 47  1  0
 47 48  1  0
 48 49  1  0
 49 50  1  0
 50 51  1  0
 50 52  1  0
 52 53  1  0
 44 54  2  0
 54 55  1  0
 54 56  1  0
 56 57  2  0
 57 58  1  0
 58 59  2  0
 41  3  1  0
 58  7  1  0
 57 10  1  0
 56 15  1  0
 53 47  1  0
M  END
$$$$
497291
     RDKit          2D

 63 68  0  0  0  0  0  0  0  0999 V2000
    0.4940    8.3646    0.0000 C   0  0  0  0  0  0  0  0  0  0  0  0
   -1.0057    8.3332    0.0000 O   0  0  0  0  0  0  0  0  0  0  0  0
   -1.7283    7.0188    0.0000 C   0  0  0  0  0  0  0  0  0  0  0  0
   -0.5195    6.1307    0.0000 C   0  0  0  0  0  0  0  0  0  0  0  0
    0.4184    4.9601    0.0000 C   0  0  0  0  0  0  0  0  0  0  0  0
    1.0212    3.5866    0.0000 O   0  0  0  0  0  0  0  0  0  0  0  0
    0.3943    1.2135    0.0000 C   0  0  0  0  0  0  0  0  0  0  0  0
    0.8578    2.6401    0.0000 C   0  0  0  0  0  0  0  0  0  0  0  0
    1.2760    0.0000    0.0000 O   0  0  0  0  0  0  0  0  0  0  0  0
    0.3943   -1.2135    0.0000 C   0  0  0  0  0  0  0  0  0  0  0  0
    0.7062   -2.6807    0.0000 C   0  0  0  0  0  0  0  0  0  0  0  0
    2.1328   -3.1443    0.0000 C   0  0  0  0  0  0  0  0  0  0  0  0
   -0.4086   -3.6844    0.0000 C   0  0  0  0  0  0  0  0  0  0  0  0
   -0.0967   -5.1517    0.0000 O   0  0  0  0  0  0  0  0  0  0  0  0
   -1.8351   -3.2209    0.0000 C   0  0  0  0  0  0  0  0  0  0  0  0
   -2.9499   -4.2246    0.0000 C   0  0  0  0  0  0  0  0  0  0  0  0
   -2.6380   -5.6918    0.0000 O   0  0  0  0  0  0  0  0  0  0  0  0
   -4.3764   -3.7611    0.0000 C   0  0  0  0  0  0  0  0  0  0  0  0
   -5.8674   -3.5964    0.0000 N   0  0  0  0  0  0  0  0  0  0  0  0
   -7.2649   -3.0515    0.0000 C   0  0  0  0  0  0  0  0  0  0  0  0
   -7.9876   -4.3660    0.0000 O   0  0  0  0  0  0  0  0  0  0  0  0
   -8.4738   -2.1635    0.0000 C   0  0  0  0  0  0  0  0  0  0  0  0
   -9.4116   -0.9928    0.0000 C   0  0  0  0  0  0  0  0  0  0  0  0
  -10.0145    0.3807    0.0000 C   0  0  0  0  0  0  0  0  0  0  0  0
  -10.2413    1.8634    0.0000 C   0  0  0  0  0  0  0  0  0  0  0  0
  -10.0767    3.3544    0.0000 C   0  0  0  0  0  0  0  0  0  0  0  0
  -11.5334    3.7122    0.0000 C   0  0  0  0  0  0  0  0  0  0  0  0
   -9.5318    4.7519    0.0000 C   0  0  0  0  0  0  0  0  0  0  0  0
  -10.8462    5.4746    0.0000 O   0  0  0  0  0  0  0  0  0  0  0  0
   -8.6437    5.9608    0.0000 C   0  0  0  0  0  0  0  0  0  0  0  0
   -9.7263    6.9990    0.0000 C   0  0  0  0  0  0  0  0  0  0  0  0
   -7.4731    6.8986    0.0000 C   0  0  0  0  0  0  0  0  0  0  0  0
   -8.2501    8.1817    0.0000 O   0  0  0  0  0  0  0  0  0  0  0  0
   -6.0995    7.5015    0.0000 C   0  0  0  0  0  0  0  0  0  0  0  0
   -6.5180    8.9419    0.0000 C   0  0  0  0  0  0  0  0  0  0  0  0
   -4.6168    7.7283    0.0000 C   0  0  0  0  0  0  0  0  0  0  0  0
   -4.6482    9.2280    0.0000 O   0  0  0  0  0  0  0  0  0  0  0  0
   -3.3651   10.0050    0.0000 C   0  0  0  0  0  0  0  0  0  0  0  0
   -3.3965   11.5047    0.0000 O   0  0  0  0  0  0  0  0  0  0  0  0
   -2.0507    9.2824    0.0000 C   0  0  0  0  0  0  0  0  0  0  0  0
   -3.1259    7.5637    0.0000 C   0  0  0  0  0  0  0  0  0  0  0  0
   -2.7680    9.0204    0.0000 C   0  0  0  0  0  0  0  0  0  0  0  0
   -9.5120   -3.2461    0.0000 C   0  0  0  0  0  0  0  0  0  0  0  0
   -4.6883   -2.2939    0.0000 C   0  0  0  0  0  0  0  0  0  0  0  0
   -6.1149   -1.8303    0.0000 C   0  0  0  0  0  0  0  0  0  0  0  0
   -6.4268   -0.3631    0.0000 N   0  0  0  0  0  0  0  0  0  0  0  0
   -7.8533    0.1004    0.0000 N   0  0  0  0  0  0  0  0  0  0  0  0
   -8.1652    1.5676    0.0000 C   0  0  0  0  0  0  0  0  0  0  0  0
   -9.5918    2.0312    0.0000 C   0  0  0  0  0  0  0  0  0  0  0  0
  -10.7065    1.0275    0.0000 N   0  0  0  0  0  0  0  0  0  0  0  0
  -10.3946   -0.4398    0.0000 C   0  0  0  0  0  0  0  0  0  0  0  0
   -8.9681   -0.9033    0.0000 C   0  0  0  0  0  0  0  0  0  0  0  0
  -12.1331    1.4910    0.0000 C   0  0  0  0  0  0  0  0  0  0  0  0
  -13.3466    0.6093    0.0000 C   0  0  0  0  0  0  0  0  0  0  0  0
  -14.5601    1.4910    0.0000 C   0  0  0  0  0  0  0  0  0  0  0  0
  -14.0966    2.9176    0.0000 C   0  0  0  0  0  0  0  0  0  0  0  0
  -12.5966    2.9176    0.0000 C   0  0  0  0  0  0  0  0  0  0  0  0
   -3.5736   -1.2902    0.0000 C   0  0  0  0  0  0  0  0  0  0  0  0
   -3.8855    0.1771    0.0000 O   0  0  0  0  0  0  0  0  0  0  0  0
   -2.1470   -1.7537    0.0000 C   0  0  0  0  0  0  0  0  0  0  0  0
   -1.0323   -0.7500    0.0000 C   0  0  0  0  0  0  0  0  0  0  0  0
   -1.0323    0.7500    0.0000 C   0  0  0  0  0  0  0  0  0  0  0  0
   -2.2458    1.6317    0.0000 O   0  0  0  0  0  0  0  0  0  0  0  0
  1  2  1  0
  3  2  1  1
  3  4  1  0
  4  5  2  0
  5  6  1  0
  6  7  1  0
  7  8  1  6
  7  9  1  0
  9 10  1  0
 10 11  2  0
 11 12  1  0
 11 13  1  0
 13 14  1  0
 13 15  2  0
 15 16  1  0
 16 17  1  0
 16 18  2  0
 18 19  1  0
 19 20  1  0
 20 21  2  0
 20 22  1  0
 22 23  2  0
 23 24  1  0
 24 25  2  0
 25 26  1  0
 26 27  1  6
 26 28  1  0
 28 29  1  6
 28 30  1  0
 30 31  1  1
 30 32  1  0
 32 33  1  1
 32 34  1  0
 34 35  1  1
 34 36  1  0
 36 37  1  6
 37 38  1  0
 38 39  2  0
 38 40  1  0
 36 41  1  0
 41 42  1  6
 22 43  1  0
 18 44  1  0
 44 45  1  0
 45 46  2  0
 46 47  1  0
 47 48  1  0
 48 49  1  0
 49 50  1  0
 50 51  1  0
 51 52  1  0
 50 53  1  0
 53 54  1  0
 54 55  1  0
 55 56  1  0
 56 57  1  0
 44 58  2  0
 58 59  1  0
 58 60  1  0
 60 61  2  0
 61 62  1  0
 62 63  2  0
 41  3  1  0
 62  7  1  0
 61 10  1  0
 60 15  1  0
 52 47  1  0
 57 53  1  0
M  END
$$$$
466768
     RDKit          2D

 57 62  0  0  0  0  0  0  0  0999 V2000
   -0.4387  -15.0730    0.0000 C   0  0  0  0  0  0  0  0  0  0  0  0
   -1.8973  -14.7229    0.0000 O   0  0  0  0  0  0  0  0  0  0  0  0
   -2.3233  -13.2846    0.0000 C   0  0  0  0  0  0  0  0  0  0  0  0
   -0.9530  -12.6745    0.0000 C   0  0  0  0  0  0  0  0  0  0  0  0
    0.2127  -11.7305    0.0000 C   0  0  0  0  0  0  0  0  0  0  0  0
    1.0944  -10.5170    0.0000 O   0  0  0  0  0  0  0  0  0  0  0  0
    1.6319   -9.1167    0.0000 C   0  0  0  0  0  0  0  0  0  0  0  0
    3.0905   -9.4668    0.0000 C   0  0  0  0  0  0  0  0  0  0  0  0
    2.9644   -8.4277    0.0000 O   0  0  0  0  0  0  0  0  0  0  0  0
    3.0459   -6.3001    0.0000 C   0  0  0  0  0  0  0  0  0  0  0  0
    3.9275   -5.0866    0.0000 C   0  0  0  0  0  0  0  0  0  0  0  0
    5.4193   -5.2434    0.0000 C   0  0  0  0  0  0  0  0  0  0  0  0
    3.3174   -3.7163    0.0000 C   0  0  0  0  0  0  0  0  0  0  0  0
    4.1991   -2.5028    0.0000 O   0  0  0  0  0  0  0  0  0  0  0  0
    1.8257   -3.5595    0.0000 C   0  0  0  0  0  0  0  0  0  0  0  0
   -0.2707   -2.8312    0.0000 C   0  0  0  0  0  0  0  0  0  0  0  0
   -2.0368   -4.7212    0.0000 O   0  0  0  0  0  0  0  0  0  0  0  0
   -2.6139   -2.1881    0.0000 C   0  0  0  0  0  0  0  0  0  0  0  0
   -4.1057   -2.0313    0.0000 N   0  0  0  0  0  0  0  0  0  0  0  0
   -5.5872   -2.2659    0.0000 C   0  0  0  0  0  0  0  0  0  0  0  0
   -6.0132   -0.8277    0.0000 O   0  0  0  0  0  0  0  0  0  0  0  0
   -6.9575   -2.8760    0.0000 C   0  0  0  0  0  0  0  0  0  0  0  0
   -8.1232   -3.8200    0.0000 C   0  0  0  0  0  0  0  0  0  0  0  0
   -9.0049   -5.0335    0.0000 C   0  0  0  0  0  0  0  0  0  0  0  0
   -9.5425   -6.4339    0.0000 C   0  0  0  0  0  0  0  0  0  0  0  0
   -9.6993   -7.9257    0.0000 C   0  0  0  0  0  0  0  0  0  0  0  0
  -11.1988   -7.9650    0.0000 C   0  0  0  0  0  0  0  0  0  0  0  0
   -9.4646   -9.4072    0.0000 C   0  0  0  0  0  0  0  0  0  0  0  0
  -10.9028   -9.8333    0.0000 O   0  0  0  0  0  0  0  0  0  0  0  0
   -8.8545  -10.7775    0.0000 C   0  0  0  0  0  0  0  0  0  0  0  0
  -10.1335  -11.5613    0.0000 C   0  0  0  0  0  0  0  0  0  0  0  0
   -7.9105  -11.9433    0.0000 C   0  0  0  0  0  0  0  0  0  0  0  0
   -8.9431  -13.0313    0.0000 O   0  0  0  0  0  0  0  0  0  0  0  0
   -6.6970  -12.8249    0.0000 C   0  0  0  0  0  0  0  0  0  0  0  0
   -7.4127  -14.1432    0.0000 C   0  0  0  0  0  0  0  0  0  0  0  0
   -5.2966  -13.3625    0.0000 C   0  0  0  0  0  0  0  0  0  0  0  0
   -5.6468  -14.8210    0.0000 O   0  0  0  0  0  0  0  0  0  0  0  0
   -7.0850  -15.2471    0.0000 C   0  0  0  0  0  0  0  0  0  0  0  0
   -7.4352  -16.7056    0.0000 O   0  0  0  0  0  0  0  0  0  0  0  0
   -8.1731  -14.2145    0.0000 C   0  0  0  0  0  0  0  0  0  0  0  0
   -3.8049  -13.5193    0.0000 C   0  0  0  0  0  0  0  0  0  0  0  0
   -3.7656  -15.0188    0.0000 C   0  0  0  0  0  0  0  0  0  0  0  0
   -7.7413   -1.5971    0.0000 C   0  0  0  0  0  0  0  0  0  0  0  0
   -1.2135   -2.7256    0.0000 C   0  0  0  0  0  0  0  0  0  0  0  0
   -0.0000   -3.6073    0.0000 C   0  0  0  0  0  0  0  0  0  0  0  0
    1.2135   -2.7256    0.0000 N   0  0  0  0  0  0  0  0  0  0  0  0
    0.7500   -1.2990    0.0000 C   0  0  0  0  0  0  0  0  0  0  0  0
    1.5000    0.0000    0.0000 C   0  0  0  0  0  0  0  0  0  0  0  0
    0.7500    1.2990    0.0000 C   0  0  0  0  0  0  0  0  0  0  0  0
    1.5000    2.5981    0.0000 C   0  0  0  0  0  0  0  0  0  0  0  0
   -0.7500    1.2990    0.0000 C   0  0  0  0  0  0  0  0  0  0  0  0
   -1.5000    0.0000    0.0000 C   0  0  0  0  0  0  0  0  0  0  0  0
   -0.7500   -1.2990    0.0000 N   0  0  0  0  0  0  0  0  0  0  0  0
    0.9440   -4.7730    0.0000 C   0  0  0  0  0  0  0  0  0  0  0  0
    1.5541   -6.1433    0.0000 C   0  0  0  0  0  0  0  0  0  0  0  0
    1.7887   -7.6249    0.0000 C   0  0  0  0  0  0  0  0  0  0  0  0
    3.2342   -7.2239    0.0000 O   0  0  0  0  0  0  0  0  0  0  0  0
  1  2  1  0
  3  2  1  6
  3  4  1  0
  4  5  2  0
  5  6  1  0
  6  7  1  0
  7  8  1  1
  7  9  1  0
  9 10  1  0
 10 11  2  0
 11 12  1  0
 11 13  1  0
 13 14  1  0
 13 15  2  0
 15 16  1  0
 16 17  1  0
 16 18  2  0
 18 19  1  0
 19 20  1  0
 20 21  2  0
 20 22  1  0
 22 23  2  0
 23 24  1  0
 24 25  2  0
 25 26  1  0
 26 27  1  1
 26 28  1  0
 28 29  1  1
 28 30  1  0
 30 31  1  6
 30 32  1  0
 32 33  1  6
 32 34  1  0
 34 35  1  6
 34 36  1  0
 36 37  1  1
 37 38  1  0
 38 39  2  0
 38 40  1  0
 36 41  1  0
 41 42  1  1
 22 43  1  0
 18 44  1  0
 44 45  2  0
 45 46  1  0
 46 47  2  0
 47 48  1  0
 48 49  2  0
 49 50  1  0
 49 51  1  0
 51 52  2  0
 52 53  1  0
 45 54  1  0
 54 55  2  0
 55 56  1  0
 56 57  2  0
 41  3  1  0
 56  7  1  0
 55 10  1  0
 54 15  1  0
 53 44  1  0
 53 47  1  0
M  END
$$$$
624296
     RDKit          2D

 35 37  0  0  0  0  0  0  0  0999 V2000
    0.2577   -9.6553    0.0000 C   0  0  0  0  0  0  0  0  0  0  0  0
    0.6460   -8.2064    0.0000 O   0  0  0  0  0  0  0  0  0  0  0  0
    2.0949   -7.8181    0.0000 N   0  0  0  0  0  0  0  0  0  0  0  0
    2.4831   -6.3692    0.0000 C   0  0  0  0  0  0  0  0  0  0  0  0
    1.4224   -5.3086    0.0000 C   0  0  0  0  0  0  0  0  0  0  0  0
   -0.0265   -5.6968    0.0000 O   0  0  0  0  0  0  0  0  0  0  0  0
    1.8107   -3.8597    0.0000 N   0  0  0  0  0  0  0  0  0  0  0  0
    0.7500   -2.7990    0.0000 C   0  0  0  0  0  0  0  0  0  0  0  0
    0.7500   -1.2990    0.0000 C   0  0  0  0  0  0  0  0  0  0  0  0
    1.5000    0.0000    0.0000 S   0  0  0  0  0  0  0  0  0  0  0  0
    0.7500    1.2990    0.0000 C   0  0  0  0  0  0  0  0  0  0  0  0
   -0.7500    1.2990    0.0000 C   0  0  0  0  0  0  0  0  0  0  0  0
   -1.5000    0.0000    0.0000 C   0  0  0  0  0  0  0  0  0  0  0  0
   -0.7500   -1.2990    0.0000 N   0  0  0  0  0  0  0  0  0  0  0  0
   -0.7500   -2.7990    0.0000 C   0  0  0  0  0  0  0  0  0  0  0  0
   -1.8107   -3.8597    0.0000 O   0  0  0  0  0  0  0  0  0  0  0  0
   -3.0000    0.0000    0.0000 C   0  0  0  0  0  0  0  0  0  0  0  0
   -3.7500    1.2990    0.0000 O   0  0  0  0  0  0  0  0  0  0  0  0
   -3.7500   -1.2990    0.0000 O   0  0  0  0  0  0  0  0  0  0  0  0
   -5.2500   -1.2990    0.0000 C   0  0  0  0  0  0  0  0  0  0  0  0
   -6.0000   -2.5981    0.0000 C   0  0  0  0  0  0  0  0  0  0  0  0
   -6.0000    0.0000    0.0000 O   0  0  0  0  0  0  0  0  0  0  0  0
   -7.5000    0.0000    0.0000 C   0  0  0  0  0  0  0  0  0  0  0  0
   -8.2500   -1.2990    0.0000 O   0  0  0  0  0  0  0  0  0  0  0  0
   -8.2500    1.2990    0.0000 C   0  0  0  0  0  0  0  0  0  0  0  0
   -1.5000    2.5981    0.0000 C   0  0  0  0  0  0  0  0  0  0  0  0
   -0.7500    3.8971    0.0000 O   0  0  0  0  0  0  0  0  0  0  0  0
   -1.5000    5.1962    0.0000 C   0  0  0  0  0  0  0  0  0  0  0  0
   -3.0000    5.1962    0.0000 O   0  0  0  0  0  0  0  0  0  0  0  0
   -0.7500    6.4952    0.0000 N   0  0  0  0  0  0  0  0  0  0  0  0
    3.9320   -5.9810    0.0000 C   0  0  0  0  0  0  0  0  0  0  0  0
    4.4695   -4.5806    0.0000 O   0  0  0  0  0  0  0  0  0  0  0  0
    5.9675   -4.6592    0.0000 C   0  0  0  0  0  0  0  0  0  0  0  0
    6.3557   -6.1080    0.0000 C   0  0  0  0  0  0  0  0  0  0  0  0
    5.0977   -6.9250    0.0000 C   0  0  0  0  0  0  0  0  0  0  0  0
  1  2  1  0
  2  3  1  0
  3  4  2  0
  4  5  1  0
  5  6  2  0
  5  7  1  0
  8  7  1  6
  8  9  1  0
  9 10  1  6
 10 11  1  0
 11 12  1  0
 12 13  2  0
 13 14  1  0
 14 15  1  0
 15 16  2  0
 13 17  1  0
 17 18  2  0
 17 19  1  0
 19 20  1  0
 20 21  1  0
 20 22  1  0
 22 23  1  0
 23 24  2  0
 23 25  1  0
 12 26  1  0
 26 27  1  0
 27 28  1  0
 28 29  2  0
 28 30  1  0
  4 31  1  0
 31 32  1  0
 32 33  1  0
 33 34  2  0
 34 35  1  0
 15  8  1  0
 14  9  1  0
 35 31  2  0
M  END
$$$$
506444
     RDKit          2D

 41 44  0  0  0  0  0  0  0  0999 V2000
    0.2577   -9.6553    0.0000 C   0  0  0  0  0  0  0  0  0  0  0  0
    0.6460   -8.2064    0.0000 O   0  0  0  0  0  0  0  0  0  0  0  0
    2.0949   -7.8181    0.0000 N   0  0  0  0  0  0  0  0  0  0  0  0
    2.4831   -6.3692    0.0000 C   0  0  0  0  0  0  0  0  0  0  0  0
    1.4224   -5.3086    0.0000 C   0  0  0  0  0  0  0  0  0  0  0  0
   -0.0265   -5.6968    0.0000 O   0  0  0  0  0  0  0  0  0  0  0  0
    1.8107   -3.8597    0.0000 N   0  0  0  0  0  0  0  0  0  0  0  0
    0.7500   -2.7990    0.0000 C   0  0  0  0  0  0  0  0  0  0  0  0
    0.7500   -1.2990    0.0000 C   0  0  0  0  0  0  0  0  0  0  0  0
    1.5000    0.0000    0.0000 S   0  0  0  0  0  0  0  0  0  0  0  0
    0.7500    1.2990    0.0000 C   0  0  0  0  0  0  0  0  0  0  0  0
   -0.7500    1.2990    0.0000 C   0  0  0  0  0  0  0  0  0  0  0  0
   -1.5000    0.0000    0.0000 C   0  0  0  0  0  0  0  0  0  0  0  0
   -0.7500   -1.2990    0.0000 N   0  0  0  0  0  0  0  0  0  0  0  0
   -0.7500   -2.7990    0.0000 C   0  0  0  0  0  0  0  0  0  0  0  0
   -1.8107   -3.8597    0.0000 O   0  0  0  0  0  0  0  0  0  0  0  0
   -3.0000    0.0000    0.0000 C   0  0  0  0  0  0  0  0  0  0  0  0
   -3.7500    1.2990    0.0000 O   0  0  0  0  0  0  0  0  0  0  0  0
   -3.7500   -1.2990    0.0000 O   0  0  0  0  0  0  0  0  0  0  0  0
   -5.2500   -1.2990    0.0000 C   0  0  0  0  0  0  0  0  0  0  0  0
   -6.0000   -2.5981    0.0000 O   0  0  0  0  0  0  0  0  0  0  0  0
   -7.5000   -2.5981    0.0000 C   0  0  0  0  0  0  0  0  0  0  0  0
   -8.2500   -1.2990    0.0000 O   0  0  0  0  0  0  0  0  0  0  0  0
   -8.2500   -3.8971    0.0000 C   0  0  0  0  0  0  0  0  0  0  0  0
   -9.5490   -3.1471    0.0000 C   0  0  0  0  0  0  0  0  0  0  0  0
   -6.9510   -4.6471    0.0000 C   0  0  0  0  0  0  0  0  0  0  0  0
   -9.0000   -5.1962    0.0000 C   0  0  0  0  0  0  0  0  0  0  0  0
   -1.5000    2.5981    0.0000 C   0  0  0  0  0  0  0  0  0  0  0  0
   -0.7500    3.8971    0.0000 C   0  0  0  0  0  0  0  0  0  0  0  0
    0.7500    3.8971    0.0000 C   0  0  0  0  0  0  0  0  0  0  0  0
    1.6317    2.6836    0.0000 S   0  0  0  0  0  0  0  0  0  0  0  0
    3.0583    3.1471    0.0000 C   0  0  0  0  0  0  0  0  0  0  0  0
    3.0583    4.6471    0.0000 N   0  0  0  0  0  0  0  0  0  0  0  0
    1.6317    5.1106    0.0000 C   0  0  0  0  0  0  0  0  0  0  0  0
    1.1682    6.5372    0.0000 C   0  0  0  0  0  0  0  0  0  0  0  0
    3.9320   -5.9810    0.0000 C   0  0  0  0  0  0  0  0  0  0  0  0
    4.4695   -4.5806    0.0000 C   0  0  0  0  0  0  0  0  0  0  0  0
    5.9675   -4.6592    0.0000 S   0  0  0  0  0  0  0  0  0  0  0  0
    6.3557   -6.1080    0.0000 C   0  0  0  0  0  0  0  0  0  0  0  0
    7.7561   -6.6456    0.0000 N   0  0  0  0  0  0  0  0  0  0  0  0
    5.0977   -6.9250    0.0000 N   0  0  0  0  0  0  0  0  0  0  0  0
  1  2  1  0
  2  3  1  0
  3  4  2  0
  4  5  1  0
  5  6  2  0
  5  7  1  0
  8  7  1  6
  8  9  1  0
  9 10  1  6
 10 11  1  0
 11 12  1  0
 12 13  2  0
 13 14  1  0
 14 15  1  0
 15 16  2  0
 13 17  1  0
 17 18  2  0
 17 19  1  0
 19 20  1  0
 20 21  1  0
 21 22  1  0
 22 23  2  0
 22 24  1  0
 24 25  1  0
 24 26  1  0
 24 27  1  0
 12 28  1  0
 28 29  2  0
 29 30  1  0
 30 31  1  0
 31 32  1  0
 32 33  2  0
 33 34  1  0
 34 35  1  0
  4 36  1  0
 36 37  2  0
 37 38  1  0
 38 39  1  0
 39 40  1  0
 39 41  2  0
 15  8  1  0
 14  9  1  0
 34 30  2  0
 41 36  1  0
M  END
$$$$
1853
     RDKit          2D

 28 31  0  0  0  0  0  0  0  0999 V2000
    7.2578   -4.5606    0.0000 C   0  0  0  0  0  0  0  0  0  0  0  0
    5.8875   -3.9505    0.0000 O   0  0  0  0  0  0  0  0  0  0  0  0
    4.6740   -4.8322    0.0000 N   0  0  0  0  0  0  0  0  0  0  0  0
    3.3037   -4.2221    0.0000 C   0  0  0  0  0  0  0  0  0  0  0  0
    2.9918   -2.7549    0.0000 C   0  0  0  0  0  0  0  0  0  0  0  0
    1.5000   -2.5981    0.0000 N   0  0  0  0  0  0  0  0  0  0  0  0
    0.8899   -3.9684    0.0000 C   0  0  0  0  0  0  0  0  0  0  0  0
    2.0046   -4.9721    0.0000 C   0  0  0  0  0  0  0  0  0  0  0  0
    1.8478   -6.4639    0.0000 C   0  0  0  0  0  0  0  0  0  0  0  0
    0.4775   -7.0740    0.0000 N   0  0  0  0  0  0  0  0  0  0  0  0
    0.7500   -1.2990    0.0000 C   0  0  0  0  0  0  0  0  0  0  0  0
    1.5000    0.0000    0.0000 N   0  0  0  0  0  0  0  0  0  0  0  0
    0.7500    1.2990    0.0000 C   0  0  0  0  0  0  0  0  0  0  0  0
    1.5000    2.5981    0.0000 N   0  0  0  0  0  0  0  0  0  0  0  0
    0.7500    3.8971    0.0000 C   0  0  0  0  0  0  0  0  0  0  0  0
   -0.7500    3.8971    0.0000 C   0  0  0  0  0  0  0  0  0  0  0  0
   -1.5000    5.1962    0.0000 C   0  0  0  0  0  0  0  0  0  0  0  0
   -3.0000    5.1962    0.0000 O   0  0  0  0  0  0  0  0  0  0  0  0
   -0.7500    6.4952    0.0000 O   0  0  0  0  0  0  0  0  0  0  0  0
   -1.5000    2.5981    0.0000 C   0  0  0  0  0  0  0  0  0  0  0  0
   -3.0000    2.5981    0.0000 O   0  0  0  0  0  0  0  0  0  0  0  0
   -0.7500    1.2990    0.0000 C   0  0  0  0  0  0  0  0  0  0  0  0
   -1.5000    0.0000    0.0000 C   0  0  0  0  0  0  0  0  0  0  0  0
   -0.7500   -1.2990    0.0000 C   0  0  0  0  0  0  0  0  0  0  0  0
   -1.5000   -2.5981    0.0000 F   0  0  0  0  0  0  0  0  0  0  0  0
    3.0000    2.5981    0.0000 C   0  0  0  0  0  0  0  0  0  0  0  0
    4.2990    3.3481    0.0000 C   0  0  0  0  0  0  0  0  0  0  0  0
    4.2990    1.8481    0.0000 C   0  0  0  0  0  0  0  0  0  0  0  0
  1  2  1  0
  2  3  1  0
  3  4  2  0
  4  5  1  0
  5  6  1  0
  6  7  1  0
  7  8  1  0
  8  9  1  0
  9 10  1  0
  6 11  1  0
 11 12  2  0
 12 13  1  0
 13 14  1  0
 14 15  1  0
 15 16  2  0
 16 17  1  0
 17 18  2  0
 17 19  1  0
 16 20  1  0
 20 21  2  0
 20 22  1  0
 22 23  1  0
 23 24  2  0
 24 25  1  0
 14 26  1  0
 26 27  1  0
 27 28  1  0
  8  4  1  0
 24 11  1  0
 22 13  2  0
 28 26  1  0
M  END
$$$$
674572
     RDKit          2D

 33 35  0  0  0  0  0  0  0  0999 V2000
    7.2578   -4.5606    0.0000 C   0  0  0  0  0  0  0  0  0  0  0  0
    5.8875   -3.9505    0.0000 O   0  0  0  0  0  0  0  0  0  0  0  0
    4.6740   -4.8322    0.0000 N   0  0  0  0  0  0  0  0  0  0  0  0
    3.3037   -4.2221    0.0000 C   0  0  0  0  0  0  0  0  0  0  0  0
    2.9918   -2.7549    0.0000 C   0  0  0  0  0  0  0  0  0  0  0  0
    1.5000   -2.5981    0.0000 N   0  0  0  0  0  0  0  0  0  0  0  0
    0.8899   -3.9684    0.0000 C   0  0  0  0  0  0  0  0  0  0  0  0
    2.0046   -4.9721    0.0000 C   0  0  0  0  0  0  0  0  0  0  0  0
    1.8478   -6.4639    0.0000 C   0  0  0  0  0  0  0  0  0  0  0  0
    0.4775   -7.0740    0.0000 N   0  0  0  0  0  0  0  0  0  0  0  0
    0.7500   -1.2990    0.0000 C   0  0  0  0  0  0  0  0  0  0  0  0
    1.5000    0.0000    0.0000 N   0  0  0  0  0  0  0  0  0  0  0  0
    0.7500    1.2990    0.0000 C   0  0  0  0  0  0  0  0  0  0  0  0
    1.5000    2.5981    0.0000 N   0  0  0  0  0  0  0  0  0  0  0  0
    0.7500    3.8971    0.0000 C   0  0  0  0  0  0  0  0  0  0  0  0
   -0.7500    3.8971    0.0000 C   0  0  0  0  0  0  0  0  0  0  0  0
   -1.5000    5.1962    0.0000 C   0  0  0  0  0  0  0  0  0  0  0  0
   -3.0000    5.1962    0.0000 O   0  0  0  0  0  0  0  0  0  0  0  0
   -0.7500    6.4952    0.0000 O   0  0  0  0  0  0  0  0  0  0  0  0
   -1.5000    2.5981    0.0000 C   0  0  0  0  0  0  0  0  0  0  0  0
   -3.0000    2.5981    0.0000 O   0  0  0  0  0  0  0  0  0  0  0  0
   -0.7500    1.2990    0.0000 C   0  0  0  0  0  0  0  0  0  0  0  0
   -1.5000    0.0000    0.0000 C   0  0  0  0  0  0  0  0  0  0  0  0
   -0.7500   -1.2990    0.0000 C   0  0  0  0  0  0  0  0  0  0  0  0
   -1.5000   -2.5981    0.0000 F   0  0  0  0  0  0  0  0  0  0  0  0
    3.0000    2.5981    0.0000 C   0  0  0  0  0  0  0  0  0  0  0  0
    4.2990    3.3481    0.0000 C   0  0  0  0  0  0  0  0  0  0  0  0
    4.2990    1.8481    0.0000 C   0  0  0  0  0  0  0  0  0  0  0  0
    8.2578    0.0000    0.0000 C   0  0  0  0  0  0  0  0  0  0  0  0
    9.5569    0.7500    0.0000 S   0  0  0  0  0  0  0  0  0  0  0  0
   10.3069   -0.5490    0.0000 O   0  0  0  0  0  0  0  0  0  0  0  0
    8.8069    2.0490    0.0000 O   0  0  0  0  0  0  0  0  0  0  0  0
   10.8559    1.5000    0.0000 O   0  0  0  0  0  0  0  0  0  0  0  0
  1  2  1  0
  2  3  1  0
  3  4  2  0
  4  5  1  0
  5  6  1  0
  6  7  1  0
  7  8  1  0
  8  9  1  0
  9 10  1  0
  6 11  1  0
 11 12  2  0
 12 13  1  0
 13 14  1  0
 14 15  1  0
 15 16  2  0
 16 17  1  0
 17 18  2  0
 17 19  1  0
 16 20  1  0
 20 21  2  0
 20 22  1  0
 22 23  1  0
 23 24  2  0
 24 25  1  0
 14 26  1  0
 26 27  1  0
 27 28  1  0
 29 30  1  0
 30 31  2  0
 30 32  2  0
 30 33  1  0
  8  4  1  0
 24 11  1  0
 22 13  2  0
 28 26  1  0
M  END
$$$$
460092
     RDKit          2D

 27 29  0  0  0  0  0  0  0  0999 V2000
    4.5000    0.0000    0.0000 C   0  0  0  0  0  0  0  0  0  0  0  0
    3.0000    0.0000    0.0000 S   0  0  0  0  0  0  0  0  0  0  0  0
    3.0000    1.5000    0.0000 O   0  0  0  0  0  0  0  0  0  0  0  0
    3.0000   -1.5000    0.0000 O   0  0  0  0  0  0  0  0  0  0  0  0
    1.5000    0.0000    0.0000 C   0  0  0  0  0  0  0  0  0  0  0  0
    0.7500   -1.2990    0.0000 C   0  0  0  0  0  0  0  0  0  0  0  0
   -0.7500   -1.2990    0.0000 C   0  0  0  0  0  0  0  0  0  0  0  0
   -1.5000    0.0000    0.0000 C   0  0  0  0  0  0  0  0  0  0  0  0
   -3.0000    0.0000    0.0000 C   0  0  0  0  0  0  0  0  0  0  0  0
   -3.7500   -1.2990    0.0000 O   0  0  0  0  0  0  0  0  0  0  0  0
   -3.7500    1.2990    0.0000 N   0  0  0  0  0  0  0  0  0  0  0  0
   -5.2500    1.2990    0.0000 C   0  0  0  0  0  0  0  0  0  0  0  0
   -6.0000    2.5981    0.0000 C   0  0  0  0  0  0  0  0  0  0  0  0
   -7.5000    2.5981    0.0000 C   0  0  0  0  0  0  0  0  0  0  0  0
   -8.2500    1.2990    0.0000 C   0  0  0  0  0  0  0  0  0  0  0  0
   -9.7500    1.2990    0.0000 Cl  0  0  0  0  0  0  0  0  0  0  0  0
   -7.5000    0.0000    0.0000 C   0  0  0  0  0  0  0  0  0  0  0  0
   -6.0000    0.0000    0.0000 C   0  0  0  0  0  0  0  0  0  0  0  0
   -8.2500   -1.2990    0.0000 C   0  0  0  0  0  0  0  0  0  0  0  0
   -9.7500   -1.2990    0.0000 C   0  0  0  0  0  0  0  0  0  0  0  0
  -10.5000   -2.5981    0.0000 C   0  0  0  0  0  0  0  0  0  0  0  0
   -9.7500   -3.8971    0.0000 C   0  0  0  0  0  0  0  0  0  0  0  0
   -8.2500   -3.8971    0.0000 C   0  0  0  0  0  0  0  0  0  0  0  0
   -7.5000   -2.5981    0.0000 N   0  0  0  0  0  0  0  0  0  0  0  0
   -0.7500    1.2990    0.0000 C   0  0  0  0  0  0  0  0  0  0  0  0
   -1.5000    2.5981    0.0000 Cl  0  0  0  0  0  0  0  0  0  0  0  0
    0.7500    1.2990    0.0000 C   0  0  0  0  0  0  0  0  0  0  0  0
  1  2  1  0
  2  3  2  0
  2  4  2  0
  2  5  1  0
  5  6  2  0
  6  7  1  0
  7  8  2  0
  8  9  1  0
  9 10  2  0
  9 11  1  0
 11 12  1  0
 12 13  2  0
 13 14  1  0
 14 15  2  0
 15 16  1  0
 15 17  1  0
 17 18  2  0
 17 19  1  0
 19 20  2  0
 20 21  1  0
 21 22  2  0
 22 23  1  0
 23 24  2  0
  8 25  1  0
 25 26  1  0
 25 27  2  0
 27  5  1  0
 18 12  1  0
 24 19  1  0
M  END
$$$$
21697
     RDKit          2D

 22 24  0  0  0  0  0  0  0  0999 V2000
    4.5000    0.0000    0.0000 C   0  0  0  0  0  0  0  0  0  0  0  0
    3.0000    0.0000    0.0000 S   0  0  0  0  0  0  0  0  0  0  0  0
    3.0000    1.5000    0.0000 O   0  0  0  0  0  0  0  0  0  0  0  0
    3.0000   -1.5000    0.0000 O   0  0  0  0  0  0  0  0  0  0  0  0
    1.5000    0.0000    0.0000 C   0  0  0  0  0  0  0  0  0  0  0  0
    0.7500   -1.2990    0.0000 C   0  0  0  0  0  0  0  0  0  0  0  0
   -0.7500   -1.2990    0.0000 C   0  0  0  0  0  0  0  0  0  0  0  0
   -1.5000    0.0000    0.0000 C   0  0  0  0  0  0  0  0  0  0  0  0
   -0.7500    1.2990    0.0000 C   0  0  0  0  0  0  0  0  0  0  0  0
    0.7500    1.2990    0.0000 C   0  0  0  0  0  0  0  0  0  0  0  0
   -3.0000    0.0000    0.0000 C   0  0  0  0  0  0  0  0  0  0  0  0
   -3.8817   -1.2135    0.0000 C   0  0  0  0  0  0  0  0  0  0  0  0
   -5.3083   -0.7500    0.0000 C   0  0  0  0  0  0  0  0  0  0  0  0
   -6.5218   -1.6317    0.0000 O   0  0  0  0  0  0  0  0  0  0  0  0
   -5.3083    0.7500    0.0000 O   0  0  0  0  0  0  0  0  0  0  0  0
   -3.8817    1.2135    0.0000 C   0  0  0  0  0  0  0  0  0  0  0  0
   -3.4182   -2.6401    0.0000 C   0  0  0  0  0  0  0  0  0  0  0  0
   -4.4218   -3.7548    0.0000 C   0  0  0  0  0  0  0  0  0  0  0  0
   -3.9583   -5.1814    0.0000 C   0  0  0  0  0  0  0  0  0  0  0  0
   -2.4911   -5.4933    0.0000 C   0  0  0  0  0  0  0  0  0  0  0  0
   -1.4874   -4.3786    0.0000 C   0  0  0  0  0  0  0  0  0  0  0  0
   -1.9509   -2.9520    0.0000 C   0  0  0  0  0  0  0  0  0  0  0  0
  1  2  1  0
  2  3  2  0
  2  4  2  0
  2  5  1  0
  5  6  2  0
  6  7  1  0
  7  8  2  0
  8  9  1  0
  9 10  2  0
  8 11  1  0
 11 12  2  0
 12 13  1  0
 13 14  2  0
 13 15  1  0
 15 16  1  0
 12 17  1  0
 17 18  2  0
 18 19  1  0
 19 20  2  0
 20 21  1  0
 21 22  2  0
 10  5  1  0
 16 11  1  0
 22 17  1  0
M  END
$$$$
14805
     RDKit          2D

 40 44  0  0  0  0  0  0  0  0999 V2000
    9.0985   -9.6461    0.0000 C   0  0  0  0  0  0  0  0  0  0  0  0
    7.7282   -9.0360    0.0000 S   0  0  0  0  0  0  0  0  0  0  0  0
    8.3383   -7.6657    0.0000 O   0  0  0  0  0  0  0  0  0  0  0  0
    7.1181  -10.4063    0.0000 O   0  0  0  0  0  0  0  0  0  0  0  0
    6.3579   -8.4259    0.0000 C   0  0  0  0  0  0  0  0  0  0  0  0
    6.2011   -6.9341    0.0000 C   0  0  0  0  0  0  0  0  0  0  0  0
    4.8308   -6.3240    0.0000 N   0  0  0  0  0  0  0  0  0  0  0  0
    4.6740   -4.8322    0.0000 C   0  0  0  0  0  0  0  0  0  0  0  0
    3.3037   -4.2221    0.0000 C   0  0  0  0  0  0  0  0  0  0  0  0
    2.9918   -2.7549    0.0000 O   0  0  0  0  0  0  0  0  0  0  0  0
    1.5000   -2.5981    0.0000 C   0  0  0  0  0  0  0  0  0  0  0  0
    0.8899   -3.9684    0.0000 C   0  0  0  0  0  0  0  0  0  0  0  0
    2.0046   -4.9721    0.0000 C   0  0  0  0  0  0  0  0  0  0  0  0
    0.7500   -1.2990    0.0000 C   0  0  0  0  0  0  0  0  0  0  0  0
    1.5000    0.0000    0.0000 C   0  0  0  0  0  0  0  0  0  0  0  0
    0.7500    1.2990    0.0000 C   0  0  0  0  0  0  0  0  0  0  0  0
   -0.7500    1.2990    0.0000 C   0  0  0  0  0  0  0  0  0  0  0  0
   -1.5000    2.5981    0.0000 N   0  0  0  0  0  0  0  0  0  0  0  0
   -3.0000    2.5981    0.0000 C   0  0  0  0  0  0  0  0  0  0  0  0
   -3.7500    1.2990    0.0000 N   0  0  0  0  0  0  0  0  0  0  0  0
   -3.0000    0.0000    0.0000 C   0  0  0  0  0  0  0  0  0  0  0  0
   -3.7500   -1.2990    0.0000 N   0  0  0  0  0  0  0  0  0  0  0  0
   -5.2500   -1.2990    0.0000 C   0  0  0  0  0  0  0  0  0  0  0  0
   -6.0000    0.0000    0.0000 C   0  0  0  0  0  0  0  0  0  0  0  0
   -7.5000    0.0000    0.0000 C   0  0  0  0  0  0  0  0  0  0  0  0
   -8.2500   -1.2990    0.0000 C   0  0  0  0  0  0  0  0  0  0  0  0
   -9.7500   -1.2990    0.0000 O   0  0  0  0  0  0  0  0  0  0  0  0
  -10.5000    0.0000    0.0000 C   0  0  0  0  0  0  0  0  0  0  0  0
  -12.0000    0.0000    0.0000 C   0  0  0  0  0  0  0  0  0  0  0  0
  -12.7500    1.2990    0.0000 C   0  0  0  0  0  0  0  0  0  0  0  0
  -14.2500    1.2990    0.0000 C   0  0  0  0  0  0  0  0  0  0  0  0
  -15.0000    0.0000    0.0000 C   0  0  0  0  0  0  0  0  0  0  0  0
  -14.2500   -1.2990    0.0000 C   0  0  0  0  0  0  0  0  0  0  0  0
  -15.0000   -2.5981    0.0000 F   0  0  0  0  0  0  0  0  0  0  0  0
  -12.7500   -1.2990    0.0000 C   0  0  0  0  0  0  0  0  0  0  0  0
   -7.5000   -2.5981    0.0000 C   0  0  0  0  0  0  0  0  0  0  0  0
   -8.2500   -3.8971    0.0000 Cl  0  0  0  0  0  0  0  0  0  0  0  0
   -6.0000   -2.5981    0.0000 C   0  0  0  0  0  0  0  0  0  0  0  0
   -1.5000    0.0000    0.0000 C   0  0  0  0  0  0  0  0  0  0  0  0
   -0.7500   -1.2990    0.0000 C   0  0  0  0  0  0  0  0  0  0  0  0
  1  2  1  0
  2  3  2  0
  2  4  2  0
  2  5  1  0
  5  6  1  0
  6  7  1  0
  7  8  1  0
  8  9  1  0
  9 10  1  0
 10 11  1  0
 11 12  2  0
 12 13  1  0
 11 14  1  0
 14 15  2  0
 15 16  1  0
 16 17  2  0
 17 18  1  0
 18 19  2  0
 19 20  1  0
 20 21  2  0
 21 22  1  0
 22 23  1  0
 23 24  2  0
 24 25  1  0
 25 26  2  0
 26 27  1  0
 27 28  1  0
 28 29  1  0
 29 30  2  0
 30 31  1  0
 31 32  2  0
 32 33  1  0
 33 34  1  0
 33 35  2  0
 26 36  1  0
 36 37  1  0
 36 38  2  0
 21 39  1  0
 39 40  2  0
 13  9  2  0
 40 14  1  0
 39 17  1  0
 38 23  1  0
 35 29  1  0
M  END
$$$$
675093
     RDKit          2D

 18 18  0  0  0  0  0  0  0  0999 V2000
    0.0000    2.8481    0.0000 C   0  0  0  0  0  0  0  0  0  0  0  0
    1.2990    3.5981    0.0000 S   0  0  0  0  0  0  0  0  0  0  0  0
    2.0490    2.2990    0.0000 O   0  0  0  0  0  0  0  0  0  0  0  0
    0.5490    4.8971    0.0000 O   0  0  0  0  0  0  0  0  0  0  0  0
    2.5981    4.3481    0.0000 O   0  0  0  0  0  0  0  0  0  0  0  0
   -5.8051   -5.5834    0.0000 C   0  0  0  0  0  0  0  0  0  0  0  0
   -4.3786   -5.1199    0.0000 C   0  0  0  0  0  0  0  0  0  0  0  0
   -2.9520   -4.6564    0.0000 C   0  0  0  0  0  0  0  0  0  0  0  0
   -2.6401   -3.1891    0.0000 N   0  0  0  0  0  0  0  0  0  0  0  0
   -1.2135   -2.7256    0.0000 C   0  0  0  0  0  0  0  0  0  0  0  0
   -0.0000   -3.6073    0.0000 C   0  0  0  0  0  0  0  0  0  0  0  0
    1.2135   -2.7256    0.0000 C   0  0  0  0  0  0  0  0  0  0  0  0
    0.7500   -1.2990    0.0000 C   0  0  0  0  0  0  0  0  0  0  0  0
    1.5000    0.0000    0.0000 C   0  0  0  0  0  0  0  0  0  0  0  0
    0.7500    1.2990    0.0000 C   0  0  0  0  0  0  0  0  0  0  0  0
   -0.7500    1.2990    0.0000 C   0  0  0  0  0  0  0  0  0  0  0  0
   -1.5000    0.0000    0.0000 C   0  0  0  0  0  0  0  0  0  0  0  0
   -0.7500   -1.2990    0.0000 C   0  0  0  0  0  0  0  0  0  0  0  0
  1  2  1  0
  2  3  2  0
  2  4  2  0
  2  5  1  0
  6  7  3  0
  7  8  1  0
  8  9  1  0
 10  9  1  1
 10 11  1  0
 11 12  1  0
 12 13  1  0
 13 14  2  0
 14 15  1  0
 15 16  2  0
 16 17  1  0
 17 18  2  0
 18 10  1  0
 18 13  1  0
M  END
$$$$
1377932
     RDKit          2D

 55 59  0  0  0  0  0  0  0  0999 V2000
    0.0000    6.6811    0.0000 C   0  0  0  0  0  0  0  0  0  0  0  0
    1.2990    7.4311    0.0000 S   0  0  0  0  0  0  0  0  0  0  0  0
    2.0490    6.1321    0.0000 O   0  0  0  0  0  0  0  0  0  0  0  0
    0.5490    8.7302    0.0000 O   0  0  0  0  0  0  0  0  0  0  0  0
    2.5981    8.1811    0.0000 O   0  0  0  0  0  0  0  0  0  0  0  0
    7.2135   -5.3237    0.0000 F   0  0  0  0  0  0  0  0  0  0  0  0
    5.7135   -5.3237    0.0000 C   0  0  0  0  0  0  0  0  0  0  0  0
    5.7135   -6.8237    0.0000 F   0  0  0  0  0  0  0  0  0  0  0  0
    5.7135   -3.8237    0.0000 F   0  0  0  0  0  0  0  0  0  0  0  0
    4.2135   -5.3237    0.0000 C   0  0  0  0  0  0  0  0  0  0  0  0
    3.4635   -4.0247    0.0000 N   0  0  0  0  0  0  0  0  0  0  0  0
    1.9635   -4.0247    0.0000 C   0  0  0  0  0  0  0  0  0  0  0  0
    1.2135   -5.3237    0.0000 O   0  0  0  0  0  0  0  0  0  0  0  0
    1.2135   -2.7256    0.0000 C   0  0  0  0  0  0  0  0  0  0  0  0
    2.5838   -2.1155    0.0000 C   0  0  0  0  0  0  0  0  0  0  0  0
    3.7974   -2.9972    0.0000 C   0  0  0  0  0  0  0  0  0  0  0  0
    5.1677   -2.3871    0.0000 C   0  0  0  0  0  0  0  0  0  0  0  0
    6.3812   -3.2688    0.0000 C   0  0  0  0  0  0  0  0  0  0  0  0
    7.7515   -2.6587    0.0000 N   0  0  0  0  0  0  0  0  0  0  0  0
    8.9651   -3.5403    0.0000 C   0  0  0  0  0  0  0  0  0  0  0  0
   10.3354   -2.9302    0.0000 C   0  0  0  0  0  0  0  0  0  0  0  0
   10.4922   -1.4385    0.0000 C   0  0  0  0  0  0  0  0  0  0  0  0
    9.2786   -0.5568    0.0000 C   0  0  0  0  0  0  0  0  0  0  0  0
    7.9083   -1.1669    0.0000 C   0  0  0  0  0  0  0  0  0  0  0  0
   11.8625   -0.8283    0.0000 N   0  0  0  0  0  0  0  0  0  0  0  0
   13.0760   -1.7100    0.0000 C   0  0  0  0  0  0  0  0  0  0  0  0
   12.9192   -3.2018    0.0000 O   0  0  0  0  0  0  0  0  0  0  0  0
   14.4463   -1.0999    0.0000 C   0  0  0  0  0  0  0  0  0  0  0  0
   15.6599   -1.9816    0.0000 C   0  0  0  0  0  0  0  0  0  0  0  0
   17.0302   -1.3715    0.0000 C   0  0  0  0  0  0  0  0  0  0  0  0
   17.1870    0.1203    0.0000 C   0  0  0  0  0  0  0  0  0  0  0  0
   15.9734    1.0020    0.0000 C   0  0  0  0  0  0  0  0  0  0  0  0
   14.6031    0.3919    0.0000 C   0  0  0  0  0  0  0  0  0  0  0  0
   13.3896    1.2735    0.0000 C   0  0  0  0  0  0  0  0  0  0  0  0
   13.5464    2.7653    0.0000 C   0  0  0  0  0  0  0  0  0  0  0  0
   12.3329    3.6470    0.0000 C   0  0  0  0  0  0  0  0  0  0  0  0
   10.9625    3.0369    0.0000 C   0  0  0  0  0  0  0  0  0  0  0  0
   10.8058    1.5451    0.0000 C   0  0  0  0  0  0  0  0  0  0  0  0
   12.0193    0.6634    0.0000 C   0  0  0  0  0  0  0  0  0  0  0  0
    9.7490    3.9186    0.0000 C   0  0  0  0  0  0  0  0  0  0  0  0
    8.5355    4.8003    0.0000 F   0  0  0  0  0  0  0  0  0  0  0  0
   10.6307    5.1321    0.0000 F   0  0  0  0  0  0  0  0  0  0  0  0
    8.8673    2.7050    0.0000 F   0  0  0  0  0  0  0  0  0  0  0  0
    0.7500   -1.2990    0.0000 C   0  0  0  0  0  0  0  0  0  0  0  0
    1.5000    0.0000    0.0000 C   0  0  0  0  0  0  0  0  0  0  0  0
    0.7500    1.2990    0.0000 C   0  0  0  0  0  0  0  0  0  0  0  0
   -0.7500    1.2990    0.0000 C   0  0  0  0  0  0  0  0  0  0  0  0
   -1.5000    0.0000    0.0000 C   0  0  0  0  0  0  0  0  0  0  0  0
   -0.7500   -1.2990    0.0000 C   0  0  0  0  0  0  0  0  0  0  0  0
   -1.2135   -2.7256    0.0000 C   0  0  0  0  0  0  0  0  0  0  0  0
   -2.5838   -3.3357    0.0000 C   0  0  0  0  0  0  0  0  0  0  0  0
   -2.7406   -4.8275    0.0000 C   0  0  0  0  0  0  0  0  0  0  0  0
   -1.5271   -5.7092    0.0000 C   0  0  0  0  0  0  0  0  0  0  0  0
   -0.1568   -5.0991    0.0000 C   0  0  0  0  0  0  0  0  0  0  0  0
   -0.0000   -3.6073    0.0000 C   0  0  0  0  0  0  0  0  0  0  0  0
  1  2  1  0
  2  3  2  0
  2  4  2  0
  2  5  1  0
  6  7  1  0
  7  8  1  0
  7  9  1  0
  7 10  1  0
 10 11  1  0
 11 12  1  0
 12 13  2  0
 12 14  1  0
 14 15  1  0
 15 16  1  0
 16 17  1  0
 17 18  1  0
 18 19  1  0
 19 20  1  0
 20 21  1  0
 21 22  1  0
 22 23  1  0
 23 24  1  0
 22 25  1  0
 25 26  1  0
 26 27  2  0
 26 28  1  0
 28 29  2  0
 29 30  1  0
 30 31  2  0
 31 32  1  0
 32 33  2  0
 33 34  1  0
 34 35  2  0
 35 36  1  0
 36 37  2  0
 37 38  1  0
 38 39  2  0
 37 40  1  0
 40 41  1  0
 40 42  1  0
 40 43  1  0
 14 44  1  0
 44 45  2  0
 45 46  1  0
 46 47  2  0
 47 48  1  0
 48 49  2  0
 49 50  1  0
 50 51  2  0
 51 52  1  0
 52 53  2  0
 53 54  1  0
 54 55  2  0
 55 14  1  0
 24 19  1  0
 33 28  1  0
 39 34  1  0
 49 44  1  0
 55 50  1  0
M  END
$$$$
674560
     RDKit          2D

 29 31  0  0  0  0  0  0  0  0999 V2000
    3.2655    0.0000    0.0000 C   0  0  0  0  0  0  0  0  0  0  0  0
    4.5645    0.7500    0.0000 S   0  0  0  0  0  0  0  0  0  0  0  0
    5.3145   -0.5490    0.0000 O   0  0  0  0  0  0  0  0  0  0  0  0
    3.8145    2.0490    0.0000 O   0  0  0  0  0  0  0  0  0  0  0  0
    5.8636    1.5000    0.0000 O   0  0  0  0  0  0  0  0  0  0  0  0
    2.2655   10.0169    0.0000 F   0  0  0  0  0  0  0  0  0  0  0  0
    0.8389    9.5533    0.0000 C   0  0  0  0  0  0  0  0  0  0  0  0
    0.5271    8.0861    0.0000 C   0  0  0  0  0  0  0  0  0  0  0  0
   -0.8995    7.6226    0.0000 C   0  0  0  0  0  0  0  0  0  0  0  0
   -2.0143    8.6263    0.0000 C   0  0  0  0  0  0  0  0  0  0  0  0
   -1.7024   10.0935    0.0000 C   0  0  0  0  0  0  0  0  0  0  0  0
   -0.2758   10.5570    0.0000 C   0  0  0  0  0  0  0  0  0  0  0  0
   -3.4408    8.1628    0.0000 C   0  0  0  0  0  0  0  0  0  0  0  0
   -4.5556    9.1664    0.0000 C   0  0  0  0  0  0  0  0  0  0  0  0
   -5.9821    8.7029    0.0000 C   0  0  0  0  0  0  0  0  0  0  0  0
   -6.2940    7.2357    0.0000 N   0  0  0  0  0  0  0  0  0  0  0  0
   -5.1793    6.2320    0.0000 C   0  0  0  0  0  0  0  0  0  0  0  0
   -3.7527    6.6955    0.0000 C   0  0  0  0  0  0  0  0  0  0  0  0
   -2.6380    5.6918    0.0000 C   0  0  0  0  0  0  0  0  0  0  0  0
   -2.9499    4.2246    0.0000 O   0  0  0  0  0  0  0  0  0  0  0  0
   -1.8351    3.2209    0.0000 C   0  0  0  0  0  0  0  0  0  0  0  0
   -0.4086    3.6844    0.0000 C   0  0  0  0  0  0  0  0  0  0  0  0
    0.7062    2.6807    0.0000 C   0  0  0  0  0  0  0  0  0  0  0  0
    0.3943    1.2135    0.0000 C   0  0  0  0  0  0  0  0  0  0  0  0
    1.2760    0.0000    0.0000 O   0  0  0  0  0  0  0  0  0  0  0  0
    0.3943   -1.2135    0.0000 C   0  0  0  0  0  0  0  0  0  0  0  0
   -1.0323   -0.7500    0.0000 O   0  0  0  0  0  0  0  0  0  0  0  0
   -1.0323    0.7500    0.0000 C   0  0  0  0  0  0  0  0  0  0  0  0
   -2.1470    1.7537    0.0000 C   0  0  0  0  0  0  0  0  0  0  0  0
  1  2  1  0
  2  3  2  0
  2  4  2  0
  2  5  1  0
  6  7  1  0
  7  8  2  0
  8  9  1  0
  9 10  2  0
 10 11  1  0
 11 12  2  0
 13 10  1  1
 13 14  1  0
 14 15  1  0
 15 16  1  0
 16 17  1  0
 17 18  1  0
 18 19  1  6
 19 20  1  0
 20 21  1  0
 21 22  2  0
 22 23  1  0
 23 24  2  0
 24 25  1  0
 25 26  1  0
 26 27  1  0
 27 28  1  0
 28 29  2  0
 12  7  1  0
 18 13  1  0
 29 21  1  0
 28 24  1  0
M  END
$$$$
674730
     RDKit          2D

 35 38  0  0  0  0  0  0  0  0999 V2000
    8.5000    0.0000    0.0000 C   0  0  0  0  0  0  0  0  0  0  0  0
    9.7990    0.7500    0.0000 S   0  0  0  0  0  0  0  0  0  0  0  0
   10.5490   -0.5490    0.0000 O   0  0  0  0  0  0  0  0  0  0  0  0
    9.0490    2.0490    0.0000 O   0  0  0  0  0  0  0  0  0  0  0  0
   11.0981    1.5000    0.0000 O   0  0  0  0  0  0  0  0  0  0  0  0
    4.0537   -7.0211    0.0000 N   0  0  0  0  0  0  0  0  0  0  0  0
    3.3037   -5.7221    0.0000 C   0  0  0  0  0  0  0  0  0  0  0  0
    2.0046   -4.9721    0.0000 C   0  0  0  0  0  0  0  0  0  0  0  0
    0.8899   -3.9684    0.0000 C   0  0  0  0  0  0  0  0  0  0  0  0
    1.5000   -2.5981    0.0000 N   0  0  0  0  0  0  0  0  0  0  0  0
    2.9918   -2.7549    0.0000 C   0  0  0  0  0  0  0  0  0  0  0  0
    3.3037   -4.2221    0.0000 C   0  0  0  0  0  0  0  0  0  0  0  0
    0.7500   -1.2990    0.0000 C   0  0  0  0  0  0  0  0  0  0  0  0
    1.5000    0.0000    0.0000 N   0  0  0  0  0  0  0  0  0  0  0  0
    0.7500    1.2990    0.0000 C   0  0  0  0  0  0  0  0  0  0  0  0
    1.5000    2.5981    0.0000 N   0  0  0  0  0  0  0  0  0  0  0  0
    0.7500    3.8971    0.0000 C   0  0  0  0  0  0  0  0  0  0  0  0
   -0.7500    3.8971    0.0000 C   0  0  0  0  0  0  0  0  0  0  0  0
   -1.5000    5.1962    0.0000 C   0  0  0  0  0  0  0  0  0  0  0  0
   -3.0000    5.1962    0.0000 O   0  0  0  0  0  0  0  0  0  0  0  0
   -0.7500    6.4952    0.0000 O   0  0  0  0  0  0  0  0  0  0  0  0
   -1.5000    2.5981    0.0000 C   0  0  0  0  0  0  0  0  0  0  0  0
   -3.0000    2.5981    0.0000 O   0  0  0  0  0  0  0  0  0  0  0  0
   -0.7500    1.2990    0.0000 C   0  0  0  0  0  0  0  0  0  0  0  0
   -1.5000    0.0000    0.0000 C   0  0  0  0  0  0  0  0  0  0  0  0
   -0.7500   -1.2990    0.0000 C   0  0  0  0  0  0  0  0  0  0  0  0
   -1.5000   -2.5981    0.0000 F   0  0  0  0  0  0  0  0  0  0  0  0
    3.0000    2.5981    0.0000 C   0  0  0  0  0  0  0  0  0  0  0  0
    3.7500    1.2990    0.0000 C   0  0  0  0  0  0  0  0  0  0  0  0
    5.2500    1.2990    0.0000 C   0  0  0  0  0  0  0  0  0  0  0  0
    6.0000    2.5981    0.0000 C   0  0  0  0  0  0  0  0  0  0  0  0
    7.5000    2.5981    0.0000 F   0  0  0  0  0  0  0  0  0  0  0  0
    5.2500    3.8971    0.0000 C   0  0  0  0  0  0  0  0  0  0  0  0
    3.7500    3.8971    0.0000 C   0  0  0  0  0  0  0  0  0  0  0  0
    3.0000    5.1962    0.0000 F   0  0  0  0  0  0  0  0  0  0  0  0
  1  2  1  0
  2  3  2  0
  2  4  2  0
  2  5  1  0
  7  6  1  6
  7  8  1  0
  8  9  1  1
  9 10  1  0
 10 11  1  0
 12 11  1  1
 10 13  1  0
 13 14  2  0
 14 15  1  0
 15 16  1  0
 16 17  1  0
 17 18  2  0
 18 19  1  0
 19 20  2  0
 19 21  1  0
 18 22  1  0
 22 23  2  0
 22 24  1  0
 24 25  1  0
 25 26  2  0
 26 27  1  0
 16 28  1  0
 28 29  2  0
 29 30  1  0
 30 31  2  0
 31 32  1  0
 31 33  1  0
 33 34  2  0
 34 35  1  0
 12  7  1  0
 12  8  1  0
 26 13  1  0
 24 15  2  0
 34 28  1  0
M  END
$$$$
56644
     RDKit          2D

 14 13  0  0  0  0  0  0  0  0999 V2000
    0.0000    0.0000    0.0000 C   0  0  0  0  0  0  0  0  0  0  0  0
    1.2990    0.7500    0.0000 S   0  0  0  0  0  0  0  0  0  0  0  0
    2.0490   -0.5490    0.0000 O   0  0  0  0  0  0  0  0  0  0  0  0
    0.5490    2.0490    0.0000 O   0  0  0  0  0  0  0  0  0  0  0  0
    2.5981    1.5000    0.0000 O   0  0  0  0  0  0  0  0  0  0  0  0
    2.5981    3.0000    0.0000 C   0  0  0  0  0  0  0  0  0  0  0  0
    3.8971    3.7500    0.0000 C   0  0  0  0  0  0  0  0  0  0  0  0
    3.8971    5.2500    0.0000 C   0  0  0  0  0  0  0  0  0  0  0  0
    5.1962    6.0000    0.0000 C   0  0  0  0  0  0  0  0  0  0  0  0
    5.1962    7.5000    0.0000 O   0  0  0  0  0  0  0  0  0  0  0  0
    6.4952    8.2500    0.0000 S   0  0  0  0  0  0  0  0  0  0  0  0
    7.2452    6.9510    0.0000 O   0  0  0  0  0  0  0  0  0  0  0  0
    5.7452    9.5490    0.0000 O   0  0  0  0  0  0  0  0  0  0  0  0
    7.7942    9.0000    0.0000 C   0  0  0  0  0  0  0  0  0  0  0  0
  1  2  1  0
  2  3  2  0
  2  4  2  0
  2  5  1  0
  5  6  1  0
  6  7  1  0
  7  8  1  0
  8  9  1  0
  9 10  1  0
 10 11  1  0
 11 12  2  0
 11 13  2  0
 11 14  1  0
M  END
$$$$
5970
     RDKit          2D

 25 28  0  0  0  0  0  0  0  0999 V2000
   -3.0000   -7.7942    0.0000 C   0  0  0  0  0  0  0  0  0  0  0  0
   -1.5000   -7.7942    0.0000 S   0  0  0  0  0  0  0  0  0  0  0  0
   -0.7500   -6.4952    0.0000 C   0  0  0  0  0  0  0  0  0  0  0  0
    0.7500   -6.4952    0.0000 C   0  0  0  0  0  0  0  0  0  0  0  0
    1.5000   -5.1962    0.0000 C   0  0  0  0  0  0  0  0  0  0  0  0
    0.7500   -3.8971    0.0000 C   0  0  0  0  0  0  0  0  0  0  0  0
    1.5000   -2.5981    0.0000 S   0  0  0  0  0  0  0  0  0  0  0  0
    0.7500   -1.2990    0.0000 C   0  0  0  0  0  0  0  0  0  0  0  0
    1.5000    0.0000    0.0000 C   0  0  0  0  0  0  0  0  0  0  0  0
    0.7500    1.2990    0.0000 C   0  0  0  0  0  0  0  0  0  0  0  0
   -0.7500    1.2990    0.0000 C   0  0  0  0  0  0  0  0  0  0  0  0
   -1.5000    0.0000    0.0000 C   0  0  0  0  0  0  0  0  0  0  0  0
   -0.7500   -1.2990    0.0000 C   0  0  0  0  0  0  0  0  0  0  0  0
   -1.5000   -2.5981    0.0000 N   0  0  0  0  0  0  0  0  0  0  0  0
   -3.0000   -2.5981    0.0000 C   0  0  0  0  0  0  0  0  0  0  0  0
   -3.7500   -1.2990    0.0000 C   0  0  0  0  0  0  0  0  0  0  0  0
   -5.2500   -1.2990    0.0000 C   0  0  0  0  0  0  0  0  0  0  0  0
   -6.0000    0.0000    0.0000 C   0  0  0  0  0  0  0  0  0  0  0  0
   -7.5000    0.0000    0.0000 C   0  0  0  0  0  0  0  0  0  0  0  0
   -8.2500   -1.2990    0.0000 C   0  0  0  0  0  0  0  0  0  0  0  0
   -7.5000   -2.5981    0.0000 C   0  0  0  0  0  0  0  0  0  0  0  0
   -6.0000   -2.5981    0.0000 N   0  0  0  0  0  0  0  0  0  0  0  0
   -5.2500   -3.8971    0.0000 C   0  0  0  0  0  0  0  0  0  0  0  0
   -0.7500   -3.8971    0.0000 C   0  0  0  0  0  0  0  0  0  0  0  0
   -1.5000   -5.1962    0.0000 C   0  0  0  0  0  0  0  0  0  0  0  0
  1  2  1  0
  2  3  1  0
  3  4  2  0
  4  5  1  0
  5  6  2  0
  6  7  1  0
  7  8  1  0
  8  9  2  0
  9 10  1  0
 10 11  2  0
 11 12  1  0
 12 13  2  0
 13 14  1  0
 14 15  1  0
 15 16  1  0
 16 17  1  0
 17 18  1  0
 18 19  1  0
 19 20  1  0
 20 21  1  0
 21 22  1  0
 22 23  1  0
 14 24  1  0
 24 25  2  0
 25  3  1  0
 24  6  1  0
 13  8  1  0
 22 17  1  0
M  END
$$$$
27308
     RDKit          2D

 25 27  0  0  0  0  0  0  0  0999 V2000
    0.6559   -3.4720    0.0000 C   0  0  0  0  0  0  0  0  0  0  0  0
    1.5000   -2.5981    0.0000 C   0  0  0  0  0  0  0  0  0  0  0  0
    0.7500   -1.2990    0.0000 C   0  0  0  0  0  0  0  0  0  0  0  0
    1.5000    0.0000    0.0000 N   0  0  0  0  0  0  0  0  0  0  0  0
    0.7500    1.2990    0.0000 C   0  0  0  0  0  0  0  0  0  0  0  0
   -0.7500    1.2990    0.0000 N   0  0  0  0  0  0  0  0  0  0  0  0
   -1.5000    0.0000    0.0000 C   0  0  0  0  0  0  0  0  0  0  0  0
   -0.7500   -1.2990    0.0000 C   0  0  0  0  0  0  0  0  0  0  0  0
   -1.5000   -2.5981    0.0000 F   0  0  0  0  0  0  0  0  0  0  0  0
    3.0000   -2.5981    0.0000 C   0  0  0  0  0  0  0  0  0  0  0  0
    3.0000   -1.0981    0.0000 O   0  0  0  0  0  0  0  0  0  0  0  0
    3.0000   -4.0981    0.0000 C   0  0  0  0  0  0  0  0  0  0  0  0
    1.7010   -4.8481    0.0000 N   0  0  0  0  0  0  0  0  0  0  0  0
    1.5442   -6.3399    0.0000 C   0  0  0  0  0  0  0  0  0  0  0  0
    0.0769   -6.6517    0.0000 N   0  0  0  0  0  0  0  0  0  0  0  0
   -0.6731   -5.3527    0.0000 C   0  0  0  0  0  0  0  0  0  0  0  0
    0.3306   -4.2380    0.0000 N   0  0  0  0  0  0  0  0  0  0  0  0
    4.5000   -2.5981    0.0000 C   0  0  0  0  0  0  0  0  0  0  0  0
    5.2500   -3.8971    0.0000 C   0  0  0  0  0  0  0  0  0  0  0  0
    6.7500   -3.8971    0.0000 C   0  0  0  0  0  0  0  0  0  0  0  0
    7.5000   -2.5981    0.0000 C   0  0  0  0  0  0  0  0  0  0  0  0
    9.0000   -2.5981    0.0000 F   0  0  0  0  0  0  0  0  0  0  0  0
    6.7500   -1.2990    0.0000 C   0  0  0  0  0  0  0  0  0  0  0  0
    5.2500   -1.2990    0.0000 C   0  0  0  0  0  0  0  0  0  0  0  0
    4.5000   -0.0000    0.0000 F   0  0  0  0  0  0  0  0  0  0  0  0
  2  1  1  1
  2  3  1  0
  3  4  2  0
  4  5  1  0
  5  6  2  0
  6  7  1  0
  7  8  2  0
  8  9  1  0
  2 10  1  0
 10 11  1  6
 10 12  1  0
 12 13  1  0
 13 14  1  0
 14 15  2  0
 15 16  1  0
 16 17  2  0
 10 18  1  0
 18 19  2  0
 19 20  1  0
 20 21  2  0
 21 22  1  0
 21 23  1  0
 23 24  2  0
 24 25  1  0
  8  3  1  0
 17 13  1  0
 24 18  1  0
M  END
$$$$
1927831
     RDKit          2D

 18 19  0  0  0  0  0  0  0  0999 V2000
    1.5000   -5.1962    0.0000 C   0  0  0  0  0  0  0  0  0  0  0  0
    0.7500   -3.8971    0.0000 C   0  0  0  0  0  0  0  0  0  0  0  0
    1.5000   -2.5981    0.0000 C   0  0  0  0  0  0  0  0  0  0  0  0
    0.7500   -1.2990    0.0000 C   0  0  0  0  0  0  0  0  0  0  0  0
    1.5000    0.0000    0.0000 C   0  0  0  0  0  0  0  0  0  0  0  0
    0.7500    1.2990    0.0000 C   0  0  0  0  0  0  0  0  0  0  0  0
   -0.7500    1.2990    0.0000 C   0  0  0  0  0  0  0  0  0  0  0  0
   -1.5000    0.0000    0.0000 C   0  0  0  0  0  0  0  0  0  0  0  0
   -0.7500   -1.2990    0.0000 C   0  0  0  0  0  0  0  0  0  0  0  0
   -0.7500   -3.8971    0.0000 N   0  0  0  0  0  0  0  0  0  0  0  0
   -1.5000   -5.1962    0.0000 C   0  0  0  0  0  0  0  0  0  0  0  0
   -1.5000   -2.5981    0.0000 C   0  0  0  0  0  0  0  0  0  0  0  0
   -3.0000   -2.5981    0.0000 C   0  0  0  0  0  0  0  0  0  0  0  0
   -3.7500   -1.2990    0.0000 C   0  0  0  0  0  0  0  0  0  0  0  0
   -5.2500   -1.2990    0.0000 C   0  0  0  0  0  0  0  0  0  0  0  0
   -6.0000   -2.5981    0.0000 C   0  0  0  0  0  0  0  0  0  0  0  0
   -5.2500   -3.8971    0.0000 C   0  0  0  0  0  0  0  0  0  0  0  0
   -3.7500   -3.8971    0.0000 C   0  0  0  0  0  0  0  0  0  0  0  0
  2  1  1  6
  2  3  1  0
  3  4  1  0
  4  5  2  0
  5  6  1  0
  6  7  2  0
  7  8  1  0
  8  9  2  0
  2 10  1  0
 10 11  1  0
 10 12  1  0
 12 13  1  0
 13 14  2  0
 14 15  1  0
 15 16  2  0
 16 17  1  0
 17 18  2  0
  9  4  1  0
 18 13  1  0
M  END
$$$$
675173
     RDKit          2D

 19 19  0  0  0  0  0  0  0  0999 V2000
    5.2500   -1.2990    0.0000 C   0  0  0  0  0  0  0  0  0  0  0  0
    3.7500   -1.2990    0.0000 C   0  0  0  0  0  0  0  0  0  0  0  0
    3.0000    0.0000    0.0000 C   0  0  0  0  0  0  0  0  0  0  0  0
    1.5000    0.0000    0.0000 C   0  0  0  0  0  0  0  0  0  0  0  0
    0.7500   -1.2990    0.0000 C   0  0  0  0  0  0  0  0  0  0  0  0
   -0.7500   -1.2990    0.0000 C   0  0  0  0  0  0  0  0  0  0  0  0
   -1.5000    0.0000    0.0000 C   0  0  0  0  0  0  0  0  0  0  0  0
   -0.7500    1.2990    0.0000 C   0  0  0  0  0  0  0  0  0  0  0  0
    0.7500    1.2990    0.0000 C   0  0  0  0  0  0  0  0  0  0  0  0
    3.0000   -2.5981    0.0000 N   0  0  0  0  0  0  0  0  0  0  0  0
    3.7500   -3.8971    0.0000 C   0  0  0  0  0  0  0  0  0  0  0  0
    5.2500   -3.8971    0.0000 O   0  0  0  0  0  0  0  0  0  0  0  0
    3.0000   -5.1962    0.0000 C   0  0  0  0  0  0  0  0  0  0  0  0
    1.5000   -5.1962    0.0000 N   0  0  0  0  0  0  0  0  0  0  0  0
    3.7500   -6.4952    0.0000 C   0  0  0  0  0  0  0  0  0  0  0  0
    3.0000   -7.7942    0.0000 C   0  0  0  0  0  0  0  0  0  0  0  0
    3.7500   -9.0933    0.0000 C   0  0  0  0  0  0  0  0  0  0  0  0
    3.0000  -10.3923    0.0000 C   0  0  0  0  0  0  0  0  0  0  0  0
    3.7500  -11.6913    0.0000 N   0  0  0  0  0  0  0  0  0  0  0  0
  2  1  1  6
  2  3  1  0
  3  4  1  0
  4  5  2  0
  5  6  1  0
  6  7  2  0
  7  8  1  0
  8  9  2  0
  2 10  1  0
 10 11  1  0
 11 12  2  0
 11 13  1  0
 13 14  1  6
 13 15  1  0
 15 16  1  0
 16 17  1  0
 17 18  1  0
 18 19  1  0
  9  4  1  0
M  END
$$$$
675129
     RDKit          2D

 29 27  0  0  0  0  0  0  0  0999 V2000
    5.2500   -1.2990    0.0000 C   0  0  0  0  0  0  0  0  0  0  0  0
    3.7500   -1.2990    0.0000 C   0  0  0  0  0  0  0  0  0  0  0  0
    3.0000    0.0000    0.0000 C   0  0  0  0  0  0  0  0  0  0  0  0
    1.5000    0.0000    0.0000 C   0  0  0  0  0  0  0  0  0  0  0  0
    0.7500   -1.2990    0.0000 C   0  0  0  0  0  0  0  0  0  0  0  0
   -0.7500   -1.2990    0.0000 C   0  0  0  0  0  0  0  0  0  0  0  0
   -1.5000    0.0000    0.0000 C   0  0  0  0  0  0  0  0  0  0  0  0
   -0.7500    1.2990    0.0000 C   0  0  0  0  0  0  0  0  0  0  0  0
    0.7500    1.2990    0.0000 C   0  0  0  0  0  0  0  0  0  0  0  0
    3.0000   -2.5981    0.0000 N   0  0  0  0  0  0  0  0  0  0  0  0
    3.7500   -3.8971    0.0000 C   0  0  0  0  0  0  0  0  0  0  0  0
    5.2500   -3.8971    0.0000 O   0  0  0  0  0  0  0  0  0  0  0  0
    3.0000   -5.1962    0.0000 C   0  0  0  0  0  0  0  0  0  0  0  0
    1.5000   -5.1962    0.0000 N   0  0  0  0  0  0  0  0  0  0  0  0
    3.7500   -6.4952    0.0000 C   0  0  0  0  0  0  0  0  0  0  0  0
    3.0000   -7.7942    0.0000 C   0  0  0  0  0  0  0  0  0  0  0  0
    3.7500   -9.0933    0.0000 C   0  0  0  0  0  0  0  0  0  0  0  0
    3.0000  -10.3923    0.0000 C   0  0  0  0  0  0  0  0  0  0  0  0
    3.7500  -11.6913    0.0000 N   0  0  0  0  0  0  0  0  0  0  0  0
    6.2500    0.0000    0.0000 C   0  0  0  0  0  0  0  0  0  0  0  0
    7.5490    0.7500    0.0000 S   0  0  0  0  0  0  0  0  0  0  0  0
    8.2990   -0.5490    0.0000 O   0  0  0  0  0  0  0  0  0  0  0  0
    6.7990    2.0490    0.0000 O   0  0  0  0  0  0  0  0  0  0  0  0
    8.8481    1.5000    0.0000 O   0  0  0  0  0  0  0  0  0  0  0  0
    9.8481    0.0000    0.0000 C   0  0  0  0  0  0  0  0  0  0  0  0
   11.1471    0.7500    0.0000 S   0  0  0  0  0  0  0  0  0  0  0  0
   11.8971   -0.5490    0.0000 O   0  0  0  0  0  0  0  0  0  0  0  0
   10.3971    2.0490    0.0000 O   0  0  0  0  0  0  0  0  0  0  0  0
   12.4462    1.5000    0.0000 O   0  0  0  0  0  0  0  0  0  0  0  0
  2  1  1  6
  2  3  1  0
  3  4  1  0
  4  5  2  0
  5  6  1  0
  6  7  2  0
  7  8  1  0
  8  9  2  0
  2 10  1  0
 10 11  1  0
 11 12  2  0
 11 13  1  0
 13 14  1  6
 13 15  1  0
 15 16  1  0
 16 17  1  0
 17 18  1  0
 18 19  1  0
 20 21  1  0
 21 22  2  0
 21 23  2  0
 21 24  1  0
 25 26  1  0
 26 27  2  0
 26 28  2  0
 26 29  1  0
  9  4  1  0
M  END
$$$$
675235
     RDKit          2D

 26 28  0  0  0  0  0  0  0  0999 V2000
   -3.7500   -3.8971    0.0000 C   0  0  0  0  0  0  0  0  0  0  0  0
   -3.0000   -2.5981    0.0000 C   0  0  0  0  0  0  0  0  0  0  0  0
   -3.7500   -1.2990    0.0000 N   0  0  0  0  0  0  0  0  0  0  0  0
   -5.2500   -1.2990    0.0000 C   0  0  0  0  0  0  0  0  0  0  0  0
   -6.0000    0.0000    0.0000 C   0  0  0  0  0  0  0  0  0  0  0  0
   -7.5000    0.0000    0.0000 C   0  0  0  0  0  0  0  0  0  0  0  0
   -8.2500    1.2990    0.0000 C   0  0  0  0  0  0  0  0  0  0  0  0
   -7.5000    2.5981    0.0000 C   0  0  0  0  0  0  0  0  0  0  0  0
   -8.2500    3.8971    0.0000 C   0  0  0  0  0  0  0  0  0  0  0  0
   -9.7500    3.8971    0.0000 C   0  0  0  0  0  0  0  0  0  0  0  0
  -10.5000    2.5981    0.0000 C   0  0  0  0  0  0  0  0  0  0  0  0
   -9.7500    1.2990    0.0000 C   0  0  0  0  0  0  0  0  0  0  0  0
  -12.0000    2.5981    0.0000 C   0  0  0  0  0  0  0  0  0  0  0  0
  -13.5000    2.5981    0.0000 F   0  0  0  0  0  0  0  0  0  0  0  0
  -12.0000    4.0981    0.0000 F   0  0  0  0  0  0  0  0  0  0  0  0
  -12.0000    1.0981    0.0000 F   0  0  0  0  0  0  0  0  0  0  0  0
   -1.5000   -2.5981    0.0000 C   0  0  0  0  0  0  0  0  0  0  0  0
   -0.7500   -3.8971    0.0000 C   0  0  0  0  0  0  0  0  0  0  0  0
    0.7500   -3.8971    0.0000 C   0  0  0  0  0  0  0  0  0  0  0  0
    1.5000   -2.5981    0.0000 C   0  0  0  0  0  0  0  0  0  0  0  0
    0.7500   -1.2990    0.0000 C   0  0  0  0  0  0  0  0  0  0  0  0
    1.5000    0.0000    0.0000 C   0  0  0  0  0  0  0  0  0  0  0  0
    0.7500    1.2990    0.0000 C   0  0  0  0  0  0  0  0  0  0  0  0
   -0.7500    1.2990    0.0000 C   0  0  0  0  0  0  0  0  0  0  0  0
   -1.5000    0.0000    0.0000 C   0  0  0  0  0  0  0  0  0  0  0  0
   -0.7500   -1.2990    0.0000 C   0  0  0  0  0  0  0  0  0  0  0  0
  2  1  1  1
  2  3  1  0
  3  4  1  0
  4  5  1  0
  5  6  1  0
  6  7  1  0
  7  8  2  0
  8  9  1  0
  9 10  2  0
 10 11  1  0
 11 12  2  0
 11 13  1  0
 13 14  1  0
 13 15  1  0
 13 16  1  0
  2 17  1  0
 17 18  2  0
 18 19  1  0
 19 20  2  0
 20 21  1  0
 21 22  2  0
 22 23  1  0
 23 24  2  0
 24 25  1  0
 25 26  2  0
 12  7  1  0
 26 17  1  0
 26 21  1  0
M  END
$$$$
602271
     RDKit          2D

 30 33  0  0  0  0  0  0  0  0999 V2000
    3.7500   -1.2990    0.0000 C   0  0  0  0  0  0  0  0  0  0  0  0
    3.0000   -2.5981    0.0000 C   0  0  0  0  0  0  0  0  0  0  0  0
    1.5000   -2.5981    0.0000 O   0  0  0  0  0  0  0  0  0  0  0  0
    0.7500   -1.2990    0.0000 C   0  0  0  0  0  0  0  0  0  0  0  0
    1.5000    0.0000    0.0000 C   0  0  0  0  0  0  0  0  0  0  0  0
    0.7500    1.2990    0.0000 C   0  0  0  0  0  0  0  0  0  0  0  0
   -0.7500    1.2990    0.0000 C   0  0  0  0  0  0  0  0  0  0  0  0
   -1.5000    0.0000    0.0000 N   0  0  0  0  0  0  0  0  0  0  0  0
   -0.7500   -1.2990    0.0000 C   0  0  0  0  0  0  0  0  0  0  0  0
   -1.5000   -2.5981    0.0000 N   0  0  0  0  0  0  0  0  0  0  0  0
    1.5000    2.5981    0.0000 C   0  0  0  0  0  0  0  0  0  0  0  0
    0.8899    3.9684    0.0000 C   0  0  0  0  0  0  0  0  0  0  0  0
    2.0046    4.9721    0.0000 N   0  0  0  0  0  0  0  0  0  0  0  0
    3.3037    4.2221    0.0000 N   0  0  0  0  0  0  0  0  0  0  0  0
    2.9918    2.7549    0.0000 C   0  0  0  0  0  0  0  0  0  0  0  0
    4.6740    4.8322    0.0000 C   0  0  0  0  0  0  0  0  0  0  0  0
    5.8875    3.9505    0.0000 C   0  0  0  0  0  0  0  0  0  0  0  0
    7.2578    4.5606    0.0000 C   0  0  0  0  0  0  0  0  0  0  0  0
    7.4146    6.0524    0.0000 N   0  0  0  0  0  0  0  0  0  0  0  0
    6.2011    6.9341    0.0000 C   0  0  0  0  0  0  0  0  0  0  0  0
    4.8308    6.3240    0.0000 C   0  0  0  0  0  0  0  0  0  0  0  0
    3.7500   -3.8971    0.0000 C   0  0  0  0  0  0  0  0  0  0  0  0
    3.0000   -5.1962    0.0000 C   0  0  0  0  0  0  0  0  0  0  0  0
    1.5000   -5.1962    0.0000 Cl  0  0  0  0  0  0  0  0  0  0  0  0
    3.7500   -6.4952    0.0000 C   0  0  0  0  0  0  0  0  0  0  0  0
    5.2500   -6.4952    0.0000 C   0  0  0  0  0  0  0  0  0  0  0  0
    6.0000   -5.1962    0.0000 C   0  0  0  0  0  0  0  0  0  0  0  0
    7.5000   -5.1962    0.0000 F   0  0  0  0  0  0  0  0  0  0  0  0
    5.2500   -3.8971    0.0000 C   0  0  0  0  0  0  0  0  0  0  0  0
    6.0000   -2.5981    0.0000 Cl  0  0  0  0  0  0  0  0  0  0  0  0
  2  1  1  6
  2  3  1  0
  3  4  1  0
  4  5  2  0
  5  6  1  0
  6  7  2  0
  7  8  1  0
  8  9  2  0
  9 10  1  0
  6 11  1  0
 11 12  1  0
 12 13  2  0
 13 14  1  0
 14 15  1  0
 14 16  1  0
 16 17  1  0
 17 18  1  0
 18 19  1  0
 19 20  1  0
 20 21  1  0
  2 22  1  0
 22 23  2  0
 23 24  1  0
 23 25  1  0
 25 26  2  0
 26 27  1  0
 27 28  1  0
 27 29  2  0
 29 30  1  0
  9  4  1  0
 15 11  2  0
 21 16  1  0
 29 22  1  0
M  END
$$$$
2039302
     RDKit          2D

 35 38  0  0  0  0  0  0  0  0999 V2000
   -0.0314   -5.7307    0.0000 C   0  0  0  0  0  0  0  0  0  0  0  0
   -1.1805   -4.7665    0.0000 C   0  0  0  0  0  0  0  0  0  0  0  0
   -0.9200   -3.2893    0.0000 O   0  0  0  0  0  0  0  0  0  0  0  0
    0.4895   -2.7762    0.0000 C   0  0  0  0  0  0  0  0  0  0  0  0
    0.7500   -1.2990    0.0000 C   0  0  0  0  0  0  0  0  0  0  0  0
    1.5000    0.0000    0.0000 C   0  0  0  0  0  0  0  0  0  0  0  0
    0.7500    1.2990    0.0000 C   0  0  0  0  0  0  0  0  0  0  0  0
   -0.7500    1.2990    0.0000 C   0  0  0  0  0  0  0  0  0  0  0  0
   -2.2418    1.4558    0.0000 C   0  0  0  0  0  0  0  0  0  0  0  0
   -2.5537    2.9231    0.0000 C   0  0  0  0  0  0  0  0  0  0  0  0
   -1.2546    3.6731    0.0000 C   0  0  0  0  0  0  0  0  0  0  0  0
   -1.0978    5.1648    0.0000 O   0  0  0  0  0  0  0  0  0  0  0  0
   -0.1399    2.6694    0.0000 N   0  0  0  0  0  0  0  0  0  0  0  0
   -1.5000    0.0000    0.0000 C   0  0  0  0  0  0  0  0  0  0  0  0
   -0.7500   -1.2990    0.0000 N   0  0  0  0  0  0  0  0  0  0  0  0
    2.1595   -1.8121    0.0000 C   0  0  0  0  0  0  0  0  0  0  0  0
    2.4200   -3.2893    0.0000 C   0  0  0  0  0  0  0  0  0  0  0  0
    3.8296   -3.8023    0.0000 C   0  0  0  0  0  0  0  0  0  0  0  0
    4.9786   -2.8381    0.0000 C   0  0  0  0  0  0  0  0  0  0  0  0
    4.7181   -1.3609    0.0000 C   0  0  0  0  0  0  0  0  0  0  0  0
    3.3086   -0.8479    0.0000 C   0  0  0  0  0  0  0  0  0  0  0  0
   -2.5900   -5.2795    0.0000 C   0  0  0  0  0  0  0  0  0  0  0  0
   -2.8505   -6.7567    0.0000 C   0  0  0  0  0  0  0  0  0  0  0  0
   -4.2600   -7.2698    0.0000 C   0  0  0  0  0  0  0  0  0  0  0  0
   -5.4091   -6.3056    0.0000 C   0  0  0  0  0  0  0  0  0  0  0  0
   -5.1486   -4.8284    0.0000 C   0  0  0  0  0  0  0  0  0  0  0  0
   -3.7391   -4.3153    0.0000 C   0  0  0  0  0  0  0  0  0  0  0  0
   -6.2977   -3.8642    0.0000 C   0  0  0  0  0  0  0  0  0  0  0  0
   -7.4468   -2.9000    0.0000 F   0  0  0  0  0  0  0  0  0  0  0  0
   -7.2619   -5.0133    0.0000 F   0  0  0  0  0  0  0  0  0  0  0  0
   -5.3335   -2.7151    0.0000 F   0  0  0  0  0  0  0  0  0  0  0  0
   -4.5205   -8.7470    0.0000 C   0  0  0  0  0  0  0  0  0  0  0  0
   -4.7810  -10.2242    0.0000 F   0  0  0  0  0  0  0  0  0  0  0  0
   -3.0433   -9.0074    0.0000 F   0  0  0  0  0  0  0  0  0  0  0  0
   -5.9977   -8.4865    0.0000 F   0  0  0  0  0  0  0  0  0  0  0  0
  2  1  1  6
  2  3  1  0
  3  4  1  0
  5  4  1  6
  5  6  1  0
  6  7  1  0
  8  7  1  1
  8  9  1  0
  9 10  1  0
 10 11  1  0
 11 12  2  0
 11 13  1  0
  8 14  1  0
 14 15  1  0
  5 16  1  0
 16 17  2  0
 17 18  1  0
 18 19  2  0
 19 20  1  0
 20 21  2  0
  2 22  1  0
 22 23  2  0
 23 24  1  0
 24 25  2  0
 25 26  1  0
 26 27  2  0
 26 28  1  0
 28 29  1  0
 28 30  1  0
 28 31  1  0
 24 32  1  0
 32 33  1  0
 32 34  1  0
 32 35  1  0
 15  5  1  0
 13  8  1  0
 21 16  1  0
 27 22  1  0
M  END
$$$$
399361
     RDKit          2D

 37 40  0  0  0  0  0  0  0  0999 V2000
    3.7500   -3.8971    0.0000 C   0  0  0  0  0  0  0  0  0  0  0  0
    3.0000   -2.5981    0.0000 C   0  0  0  0  0  0  0  0  0  0  0  0
    1.5000   -2.5981    0.0000 O   0  0  0  0  0  0  0  0  0  0  0  0
    0.7500   -1.2990    0.0000 C   0  0  0  0  0  0  0  0  0  0  0  0
    1.5000    0.0000    0.0000 O   0  0  0  0  0  0  0  0  0  0  0  0
    0.7500    1.2990    0.0000 C   0  0  0  0  0  0  0  0  0  0  0  0
   -0.7500    1.2990    0.0000 C   0  0  0  0  0  0  0  0  0  0  0  0
   -1.5000    0.0000    0.0000 N   0  0  0  0  0  0  0  0  0  0  0  0
   -3.0000    0.0000    0.0000 C   0  0  0  0  0  0  0  0  0  0  0  0
   -3.7500    1.2990    0.0000 C   0  0  0  0  0  0  0  0  0  0  0  0
   -5.2418    1.4558    0.0000 N   0  0  0  0  0  0  0  0  0  0  0  0
   -5.5537    2.9231    0.0000 N   0  0  0  0  0  0  0  0  0  0  0  0
   -4.2546    3.6731    0.0000 C   0  0  0  0  0  0  0  0  0  0  0  0
   -4.0978    5.1648    0.0000 O   0  0  0  0  0  0  0  0  0  0  0  0
   -3.1399    2.6694    0.0000 N   0  0  0  0  0  0  0  0  0  0  0  0
   -0.7500   -1.2990    0.0000 C   0  0  0  0  0  0  0  0  0  0  0  0
   -1.5000   -2.5981    0.0000 C   0  0  0  0  0  0  0  0  0  0  0  0
   -3.0000   -2.5981    0.0000 C   0  0  0  0  0  0  0  0  0  0  0  0
   -3.7500   -3.8971    0.0000 C   0  0  0  0  0  0  0  0  0  0  0  0
   -3.0000   -5.1962    0.0000 C   0  0  0  0  0  0  0  0  0  0  0  0
   -3.7500   -6.4952    0.0000 F   0  0  0  0  0  0  0  0  0  0  0  0
   -1.5000   -5.1962    0.0000 C   0  0  0  0  0  0  0  0  0  0  0  0
   -0.7500   -3.8971    0.0000 C   0  0  0  0  0  0  0  0  0  0  0  0
    3.7500   -1.2990    0.0000 C   0  0  0  0  0  0  0  0  0  0  0  0
    5.2500   -1.2990    0.0000 C   0  0  0  0  0  0  0  0  0  0  0  0
    6.0000   -0.0000    0.0000 C   0  0  0  0  0  0  0  0  0  0  0  0
    5.2500    1.2990    0.0000 C   0  0  0  0  0  0  0  0  0  0  0  0
    3.7500    1.2990    0.0000 C   0  0  0  0  0  0  0  0  0  0  0  0
    3.0000   -0.0000    0.0000 C   0  0  0  0  0  0  0  0  0  0  0  0
    3.0000    2.5981    0.0000 C   0  0  0  0  0  0  0  0  0  0  0  0
    2.2500    3.8971    0.0000 F   0  0  0  0  0  0  0  0  0  0  0  0
    4.2990    3.3481    0.0000 F   0  0  0  0  0  0  0  0  0  0  0  0
    1.7010    1.8481    0.0000 F   0  0  0  0  0  0  0  0  0  0  0  0
    7.5000    0.0000    0.0000 C   0  0  0  0  0  0  0  0  0  0  0  0
    9.0000    0.0000    0.0000 F   0  0  0  0  0  0  0  0  0  0  0  0
    7.5000   -1.5000    0.0000 F   0  0  0  0  0  0  0  0  0  0  0  0
    7.5000    1.5000    0.0000 F   0  0  0  0  0  0  0  0  0  0  0  0
  2  1  1  1
  2  3  1  0
  4  3  1  6
  4  5  1  0
  5  6  1  0
  6  7  1  0
  7  8  1  0
  8  9  1  0
  9 10  1  0
 10 11  2  0
 11 12  1  0
 12 13  1  0
 13 14  2  0
 13 15  1  0
  8 16  1  0
 16 17  1  6
 17 18  2  0
 18 19  1  0
 19 20  2  0
 20 21  1  0
 20 22  1  0
 22 23  2  0
  2 24  1  0
 24 25  2  0
 25 26  1  0
 26 27  2  0
 27 28  1  0
 28 29  2  0
 28 30  1  0
 30 31  1  0
 30 32  1  0
 30 33  1  0
 26 34  1  0
 34 35  1  0
 34 36  1  0
 34 37  1  0
 16  4  1  0
 15 10  1  0
 23 17  1  0
 29 24  1  0
M  END
$$$$
630322
     RDKit          2D

 32 36  0  0  0  0  0  0  0  0999 V2000
    1.4008   -9.7447    0.0000 C   0  0  0  0  0  0  0  0  0  0  0  0
    0.7500   -8.3933    0.0000 C   0  0  0  0  0  0  0  0  0  0  0  0
    1.6852   -7.2205    0.0000 C   0  0  0  0  0  0  0  0  0  0  0  0
    1.3515   -5.7581    0.0000 C   0  0  0  0  0  0  0  0  0  0  0  0
   -0.0000   -5.1073    0.0000 N   0  0  0  0  0  0  0  0  0  0  0  0
   -1.3515   -5.7581    0.0000 C   0  0  0  0  0  0  0  0  0  0  0  0
   -1.6852   -7.2205    0.0000 C   0  0  0  0  0  0  0  0  0  0  0  0
   -0.7500   -8.3933    0.0000 N   0  0  0  0  0  0  0  0  0  0  0  0
   -1.4008   -9.7447    0.0000 C   0  0  0  0  0  0  0  0  0  0  0  0
   -0.5558  -10.9841    0.0000 O   0  0  0  0  0  0  0  0  0  0  0  0
   -2.8966   -9.8568    0.0000 C   0  0  0  0  0  0  0  0  0  0  0  0
   -3.7416   -8.6175    0.0000 C   0  0  0  0  0  0  0  0  0  0  0  0
   -5.2374   -8.7296    0.0000 C   0  0  0  0  0  0  0  0  0  0  0  0
   -6.0824   -7.4902    0.0000 C   0  0  0  0  0  0  0  0  0  0  0  0
   -5.8882  -10.0810    0.0000 C   0  0  0  0  0  0  0  0  0  0  0  0
   -5.0433  -11.3204    0.0000 C   0  0  0  0  0  0  0  0  0  0  0  0
   -3.5475  -11.2083    0.0000 C   0  0  0  0  0  0  0  0  0  0  0  0
   -2.7025  -12.4476    0.0000 N   0  0  0  0  0  0  0  0  0  0  0  0
   -1.2031  -12.4925    0.0000 N   0  0  0  0  0  0  0  0  0  0  0  0
   -0.7825  -13.9323    0.0000 C   0  0  0  0  0  0  0  0  0  0  0  0
   -2.0219  -14.7773    0.0000 C   0  0  0  0  0  0  0  0  0  0  0  0
   -3.2085  -13.8597    0.0000 N   0  0  0  0  0  0  0  0  0  0  0  0
   -0.0000   -3.6073    0.0000 C   0  0  0  0  0  0  0  0  0  0  0  0
    1.2135   -2.7256    0.0000 O   0  0  0  0  0  0  0  0  0  0  0  0
    0.7500   -1.2990    0.0000 C   0  0  0  0  0  0  0  0  0  0  0  0
    1.5000    0.0000    0.0000 C   0  0  0  0  0  0  0  0  0  0  0  0
    0.7500    1.2990    0.0000 C   0  0  0  0  0  0  0  0  0  0  0  0
   -0.7500    1.2990    0.0000 C   0  0  0  0  0  0  0  0  0  0  0  0
   -1.5000    2.5981    0.0000 Cl  0  0  0  0  0  0  0  0  0  0  0  0
   -1.5000    0.0000    0.0000 C   0  0  0  0  0  0  0  0  0  0  0  0
   -0.7500   -1.2990    0.0000 C   0  0  0  0  0  0  0  0  0  0  0  0
   -1.2135   -2.7256    0.0000 N   0  0  0  0  0  0  0  0  0  0  0  0
  2  1  1  1
  2  3  1  0
  3  4  1  0
  4  5  1  0
  5  6  1  0
  6  7  1  0
  7  8  1  0
  8  9  1  0
  9 10  2  0
  9 11  1  0
 11 12  2  0
 12 13  1  0
 13 14  1  0
 13 15  2  0
 15 16  1  0
 16 17  2  0
 17 18  1  0
 18 19  1  0
 19 20  2  0
 20 21  1  0
 21 22  2  0
  5 23  1  0
 23 24  1  0
 24 25  1  0
 25 26  2  0
 26 27  1  0
 27 28  2  0
 28 29  1  0
 28 30  1  0
 30 31  2  0
 31 32  1  0
  8  2  1  0
 17 11  1  0
 22 18  1  0
 32 23  2  0
 31 25  1  0
M  END
$$$$
367860
     RDKit          2D

 23 25  0  0  0  0  0  0  0  0999 V2000
   -1.3442   -0.7172    0.0000 C   0  0  0  0  0  0  0  0  0  0  0  0
   -2.7707   -1.1807    0.0000 C   0  0  0  0  0  0  0  0  0  0  0  0
   -3.0826   -2.6480    0.0000 C   0  0  0  0  0  0  0  0  0  0  0  0
   -4.5092   -3.1115    0.0000 C   0  0  0  0  0  0  0  0  0  0  0  0
   -5.6239   -2.1078    0.0000 N   0  0  0  0  0  0  0  0  0  0  0  0
   -5.3120   -0.6406    0.0000 C   0  0  0  0  0  0  0  0  0  0  0  0
   -3.8855   -0.1771    0.0000 C   0  0  0  0  0  0  0  0  0  0  0  0
   -3.5736    1.2902    0.0000 N   0  0  0  0  0  0  0  0  0  0  0  0
   -4.6883    2.2939    0.0000 C   0  0  0  0  0  0  0  0  0  0  0  0
   -2.1470    1.7537    0.0000 C   0  0  0  0  0  0  0  0  0  0  0  0
   -1.0323    0.7500    0.0000 N   0  0  0  0  0  0  0  0  0  0  0  0
    0.3943    1.2135    0.0000 C   0  0  0  0  0  0  0  0  0  0  0  0
    0.7062    2.6807    0.0000 N   0  0  0  0  0  0  0  0  0  0  0  0
   -0.4086    3.6844    0.0000 C   0  0  0  0  0  0  0  0  0  0  0  0
   -0.4086    5.1844    0.0000 N   0  0  0  0  0  0  0  0  0  0  0  0
   -1.8351    5.6480    0.0000 C   0  0  0  0  0  0  0  0  0  0  0  0
   -2.7168    4.4344    0.0000 C   0  0  0  0  0  0  0  0  0  0  0  0
   -1.8351    3.2209    0.0000 C   0  0  0  0  0  0  0  0  0  0  0  0
   -7.0505   -2.5713    0.0000 C   0  0  0  0  0  0  0  0  0  0  0  0
   -7.3624   -4.0385    0.0000 O   0  0  0  0  0  0  0  0  0  0  0  0
   -8.1652   -1.5676    0.0000 C   0  0  0  0  0  0  0  0  0  0  0  0
   -9.5918   -2.0312    0.0000 C   0  0  0  0  0  0  0  0  0  0  0  0
  -11.0184   -2.4947    0.0000 N   0  0  0  0  0  0  0  0  0  0  0  0
  2  1  1  6
  2  3  1  0
  3  4  1  0
  4  5  1  0
  5  6  1  0
  6  7  1  0
  7  8  1  6
  8  9  1  0
  8 10  1  0
 10 11  2  0
 11 12  1  0
 12 13  2  0
 13 14  1  0
 14 15  1  0
 15 16  1  0
 16 17  2  0
 17 18  1  0
  5 19  1  0
 19 20  2  0
 19 21  1  0
 21 22  1  0
 22 23  3  0
  7  2  1  0
 18 10  1  0
 18 14  2  0
M  END
$$$$
1376013
     RDKit          2D

 36 37  0  0  0  0  0  0  0  0999 V2000
   -1.3442   -0.7172    0.0000 C   0  0  0  0  0  0  0  0  0  0  0  0
   -2.7707   -1.1807    0.0000 C   0  0  0  0  0  0  0  0  0  0  0  0
   -3.0826   -2.6480    0.0000 C   0  0  0  0  0  0  0  0  0  0  0  0
   -4.5092   -3.1115    0.0000 C   0  0  0  0  0  0  0  0  0  0  0  0
   -5.6239   -2.1078    0.0000 N   0  0  0  0  0  0  0  0  0  0  0  0
   -5.3120   -0.6406    0.0000 C   0  0  0  0  0  0  0  0  0  0  0  0
   -3.8855   -0.1771    0.0000 C   0  0  0  0  0  0  0  0  0  0  0  0
   -3.5736    1.2902    0.0000 N   0  0  0  0  0  0  0  0  0  0  0  0
   -4.6883    2.2939    0.0000 C   0  0  0  0  0  0  0  0  0  0  0  0
   -2.1470    1.7537    0.0000 C   0  0  0  0  0  0  0  0  0  0  0  0
   -1.0323    0.7500    0.0000 N   0  0  0  0  0  0  0  0  0  0  0  0
    0.3943    1.2135    0.0000 C   0  0  0  0  0  0  0  0  0  0  0  0
    0.7062    2.6807    0.0000 N   0  0  0  0  0  0  0  0  0  0  0  0
   -0.4086    3.6844    0.0000 C   0  0  0  0  0  0  0  0  0  0  0  0
   -0.4086    5.1844    0.0000 N   0  0  0  0  0  0  0  0  0  0  0  0
   -1.8351    5.6480    0.0000 C   0  0  0  0  0  0  0  0  0  0  0  0
   -2.7168    4.4344    0.0000 C   0  0  0  0  0  0  0  0  0  0  0  0
   -1.8351    3.2209    0.0000 C   0  0  0  0  0  0  0  0  0  0  0  0
   -7.0505   -2.5713    0.0000 C   0  0  0  0  0  0  0  0  0  0  0  0
   -7.3624   -4.0385    0.0000 O   0  0  0  0  0  0  0  0  0  0  0  0
   -8.1652   -1.5676    0.0000 C   0  0  0  0  0  0  0  0  0  0  0  0
   -9.5918   -2.0312    0.0000 C   0  0  0  0  0  0  0  0  0  0  0  0
  -11.0184   -2.4947    0.0000 N   0  0  0  0  0  0  0  0  0  0  0  0
   -2.5981    8.4960    0.0000 O   0  0  0  0  0  0  0  0  0  0  0  0
   -1.2990    9.2460    0.0000 C   0  0  0  0  0  0  0  0  0  0  0  0
   -1.2990   10.7460    0.0000 O   0  0  0  0  0  0  0  0  0  0  0  0
    0.0000    8.4960    0.0000 C   0  0  0  0  0  0  0  0  0  0  0  0
    1.2990    9.2460    0.0000 C   0  0  0  0  0  0  0  0  0  0  0  0
    0.5490   10.5451    0.0000 O   0  0  0  0  0  0  0  0  0  0  0  0
    2.5981    9.9960    0.0000 C   0  0  0  0  0  0  0  0  0  0  0  0
    2.5981   11.4960    0.0000 C   0  0  0  0  0  0  0  0  0  0  0  0
    1.2990   12.2460    0.0000 O   0  0  0  0  0  0  0  0  0  0  0  0
    3.8971   12.2460    0.0000 O   0  0  0  0  0  0  0  0  0  0  0  0
    2.0490    7.9470    0.0000 C   0  0  0  0  0  0  0  0  0  0  0  0
    1.2990    6.6480    0.0000 O   0  0  0  0  0  0  0  0  0  0  0  0
    3.5490    7.9470    0.0000 O   0  0  0  0  0  0  0  0  0  0  0  0
  2  1  1  6
  2  3  1  0
  3  4  1  0
  4  5  1  0
  5  6  1  0
  6  7  1  0
  7  8  1  6
  8  9  1  0
  8 10  1  0
 10 11  2  0
 11 12  1  0
 12 13  2  0
 13 14  1  0
 14 15  1  0
 15 16  1  0
 16 17  2  0
 17 18  1  0
  5 19  1  0
 19 20  2  0
 19 21  1  0
 21 22  1  0
 22 23  3  0
 24 25  1  0
 25 26  2  0
 25 27  1  0
 27 28  1  0
 28 29  1  0
 28 30  1  0
 30 31  1  0
 31 32  2  0
 31 33  1  0
 28 34  1  0
 34 35  2  0
 34 36  1  0
  7  2  1  0
 18 10  1  0
 18 14  2  0
M  END
$$$$
691562
     RDKit          2D

 30 33  0  0  0  0  0  0  0  0999 V2000
    3.0000    0.0000    0.0000 C   0  0  0  0  0  0  0  0  0  0  0  0
    1.5000    0.0000    0.0000 C   0  0  0  0  0  0  0  0  0  0  0  0
    0.7500   -1.2990    0.0000 C   0  0  0  0  0  0  0  0  0  0  0  0
   -0.7500   -1.2990    0.0000 C   0  0  0  0  0  0  0  0  0  0  0  0
   -1.5000    0.0000    0.0000 O   0  0  0  0  0  0  0  0  0  0  0  0
   -0.7500    1.2990    0.0000 C   0  0  0  0  0  0  0  0  0  0  0  0
   -1.5000    2.5981    0.0000 C   0  0  0  0  0  0  0  0  0  0  0  0
   -0.7500    3.8971    0.0000 N   0  0  0  0  0  0  0  0  0  0  0  0
   -1.5000    5.1962    0.0000 C   0  0  0  0  0  0  0  0  0  0  0  0
   -0.7500    6.4952    0.0000 C   0  0  0  0  0  0  0  0  0  0  0  0
   -1.5000    7.7942    0.0000 C   0  0  0  0  0  0  0  0  0  0  0  0
   -3.0000    7.7942    0.0000 O   0  0  0  0  0  0  0  0  0  0  0  0
   -0.7500    9.0933    0.0000 N   0  0  0  0  0  0  0  0  0  0  0  0
   -1.5000   10.3923    0.0000 C   0  0  0  0  0  0  0  0  0  0  0  0
   -0.7500   11.6913    0.0000 C   0  0  0  0  0  0  0  0  0  0  0  0
    0.7500   11.6913    0.0000 C   0  0  0  0  0  0  0  0  0  0  0  0
    1.5000   12.9904    0.0000 C   0  0  0  0  0  0  0  0  0  0  0  0
    0.7500   14.2894    0.0000 C   0  0  0  0  0  0  0  0  0  0  0  0
    1.5000   15.5885    0.0000 F   0  0  0  0  0  0  0  0  0  0  0  0
   -0.7500   14.2894    0.0000 C   0  0  0  0  0  0  0  0  0  0  0  0
   -1.5000   12.9904    0.0000 C   0  0  0  0  0  0  0  0  0  0  0  0
   -3.0000   12.9904    0.0000 F   0  0  0  0  0  0  0  0  0  0  0  0
    0.7500    6.4952    0.0000 C   0  0  0  0  0  0  0  0  0  0  0  0
    1.5000    7.7942    0.0000 O   0  0  0  0  0  0  0  0  0  0  0  0
    1.5000    5.1962    0.0000 C   0  0  0  0  0  0  0  0  0  0  0  0
    0.7500    3.8971    0.0000 C   0  0  0  0  0  0  0  0  0  0  0  0
    1.5000    2.5981    0.0000 C   0  0  0  0  0  0  0  0  0  0  0  0
    3.0000    2.5981    0.0000 O   0  0  0  0  0  0  0  0  0  0  0  0
    0.7500    1.2990    0.0000 N   0  0  0  0  0  0  0  0  0  0  0  0
    3.0000    5.1962    0.0000 O   0  0  0  0  0  0  0  0  0  0  0  0
  2  1  1  6
  2  3  1  0
  3  4  1  0
  4  5  1  0
  5  6  1  0
  6  7  1  1
  7  8  1  0
  8  9  1  0
  9 10  2  0
 10 11  1  0
 11 12  2  0
 11 13  1  0
 13 14  1  0
 14 15  1  0
 15 16  2  0
 16 17  1  0
 17 18  2  0
 18 19  1  0
 18 20  1  0
 20 21  2  0
 21 22  1  0
 10 23  1  0
 23 24  2  0
 23 25  1  0
 25 26  2  0
 26 27  1  0
 27 28  2  0
 27 29  1  0
 25 30  1  0
 29  2  1  0
 29  6  1  0
 26  8  1  0
 21 15  1  0
M  END
$$$$
65351
     RDKit          2D

 28 31  0  0  0  0  0  0  0  0999 V2000
   -5.2500   -6.4952    0.0000 C   0  0  0  0  0  0  0  0  0  0  0  0
   -3.7500   -6.4952    0.0000 C   0  0  0  0  0  0  0  0  0  0  0  0
   -3.0000   -5.1962    0.0000 C   0  0  0  0  0  0  0  0  0  0  0  0
   -1.5000   -5.1962    0.0000 N   0  0  0  0  0  0  0  0  0  0  0  0
   -0.7500   -6.4952    0.0000 C   0  0  0  0  0  0  0  0  0  0  0  0
   -1.5000   -7.7942    0.0000 C   0  0  0  0  0  0  0  0  0  0  0  0
   -0.7500   -9.0933    0.0000 C   0  0  0  0  0  0  0  0  0  0  0  0
   -3.0000   -7.7942    0.0000 N   0  0  0  0  0  0  0  0  0  0  0  0
   -0.7500   -3.8971    0.0000 C   0  0  0  0  0  0  0  0  0  0  0  0
    0.7500   -3.8971    0.0000 C   0  0  0  0  0  0  0  0  0  0  0  0
    1.5000   -5.1962    0.0000 F   0  0  0  0  0  0  0  0  0  0  0  0
    1.5000   -2.5981    0.0000 C   0  0  0  0  0  0  0  0  0  0  0  0
    3.0000   -2.5981    0.0000 N   0  0  0  0  0  0  0  0  0  0  0  0
    0.7500   -1.2990    0.0000 C   0  0  0  0  0  0  0  0  0  0  0  0
    1.5000    0.0000    0.0000 C   0  0  0  0  0  0  0  0  0  0  0  0
    3.0000    0.0000    0.0000 O   0  0  0  0  0  0  0  0  0  0  0  0
    0.7500    1.2990    0.0000 C   0  0  0  0  0  0  0  0  0  0  0  0
   -0.7500    1.2990    0.0000 C   0  0  0  0  0  0  0  0  0  0  0  0
   -1.5000    0.0000    0.0000 N   0  0  0  0  0  0  0  0  0  0  0  0
   -3.0000    0.0000    0.0000 C   0  0  0  0  0  0  0  0  0  0  0  0
   -4.2990   -0.7500    0.0000 C   0  0  0  0  0  0  0  0  0  0  0  0
   -4.2990    0.7500    0.0000 C   0  0  0  0  0  0  0  0  0  0  0  0
   -0.7500   -1.2990    0.0000 C   0  0  0  0  0  0  0  0  0  0  0  0
   -1.5000   -2.5981    0.0000 C   0  0  0  0  0  0  0  0  0  0  0  0
   -3.0000   -2.5981    0.0000 F   0  0  0  0  0  0  0  0  0  0  0  0
    1.5000    2.5981    0.0000 C   0  0  0  0  0  0  0  0  0  0  0  0
    0.7500    3.8971    0.0000 O   0  0  0  0  0  0  0  0  0  0  0  0
    3.0000    2.5981    0.0000 O   0  0  0  0  0  0  0  0  0  0  0  0
  2  1  1  6
  2  3  1  0
  3  4  1  0
  4  5  1  0
  5  6  1  0
  6  7  1  6
  6  8  1  0
  4  9  1  0
  9 10  2  0
 10 11  1  0
 10 12  1  0
 12 13  1  0
 12 14  2  0
 14 15  1  0
 15 16  2  0
 15 17  1  0
 17 18  2  0
 18 19  1  0
 19 20  1  0
 20 21  1  0
 21 22  1  0
 19 23  1  0
 23 24  2  0
 24 25  1  0
 17 26  1  0
 26 27  2  0
 26 28  1  0
  8  2  1  0
 24  9  1  0
 23 14  1  0
 22 20  1  0
M  END
$$$$
1378007
     RDKit          2D

 35 38  0  0  0  0  0  0  0  0999 V2000
    3.0000    0.0000    0.0000 C   0  0  0  0  0  0  0  0  0  0  0  0
    1.5000    0.0000    0.0000 C   0  0  0  0  0  0  0  0  0  0  0  0
    0.7500   -1.2990    0.0000 C   0  0  0  0  0  0  0  0  0  0  0  0
   -0.7500   -1.2990    0.0000 N   0  0  0  0  0  0  0  0  0  0  0  0
   -1.5000    0.0000    0.0000 C   0  0  0  0  0  0  0  0  0  0  0  0
   -0.7500    1.2990    0.0000 C   0  0  0  0  0  0  0  0  0  0  0  0
   -1.5000    2.5981    0.0000 C   0  0  0  0  0  0  0  0  0  0  0  0
    0.7500    1.2990    0.0000 O   0  0  0  0  0  0  0  0  0  0  0  0
   -1.5000   -2.5981    0.0000 C   0  0  0  0  0  0  0  0  0  0  0  0
   -3.0000   -2.5981    0.0000 C   0  0  0  0  0  0  0  0  0  0  0  0
   -3.7500   -3.8971    0.0000 C   0  0  0  0  0  0  0  0  0  0  0  0
   -3.0000   -5.1962    0.0000 C   0  0  0  0  0  0  0  0  0  0  0  0
   -3.7500   -6.4952    0.0000 N   0  0  0  0  0  0  0  0  0  0  0  0
   -5.2500   -6.4952    0.0000 C   0  0  0  0  0  0  0  0  0  0  0  0
   -6.0000   -5.1962    0.0000 O   0  0  0  0  0  0  0  0  0  0  0  0
   -6.0000   -7.7942    0.0000 C   0  0  0  0  0  0  0  0  0  0  0  0
   -7.5000   -7.7942    0.0000 C   0  0  0  0  0  0  0  0  0  0  0  0
   -8.2500   -9.0933    0.0000 C   0  0  0  0  0  0  0  0  0  0  0  0
   -7.5000  -10.3923    0.0000 C   0  0  0  0  0  0  0  0  0  0  0  0
   -6.0000  -10.3923    0.0000 C   0  0  0  0  0  0  0  0  0  0  0  0
   -5.2500   -9.0933    0.0000 C   0  0  0  0  0  0  0  0  0  0  0  0
   -3.7500   -9.0933    0.0000 C   0  0  0  0  0  0  0  0  0  0  0  0
   -5.2500  -11.6913    0.0000 C   0  0  0  0  0  0  0  0  0  0  0  0
   -6.0000  -12.9904    0.0000 C   0  0  0  0  0  0  0  0  0  0  0  0
   -5.2500  -14.2894    0.0000 C   0  0  0  0  0  0  0  0  0  0  0  0
   -3.7500  -14.2894    0.0000 C   0  0  0  0  0  0  0  0  0  0  0  0
   -3.0000  -15.5885    0.0000 O   0  0  0  0  0  0  0  0  0  0  0  0
   -3.7500  -16.8875    0.0000 C   0  0  0  0  0  0  0  0  0  0  0  0
   -4.5000  -18.1865    0.0000 F   0  0  0  0  0  0  0  0  0  0  0  0
   -2.4510  -17.6375    0.0000 F   0  0  0  0  0  0  0  0  0  0  0  0
   -5.0490  -16.1375    0.0000 F   0  0  0  0  0  0  0  0  0  0  0  0
   -3.0000  -12.9904    0.0000 C   0  0  0  0  0  0  0  0  0  0  0  0
   -3.7500  -11.6913    0.0000 C   0  0  0  0  0  0  0  0  0  0  0  0
   -1.5000   -5.1962    0.0000 C   0  0  0  0  0  0  0  0  0  0  0  0
   -0.7500   -3.8971    0.0000 N   0  0  0  0  0  0  0  0  0  0  0  0
  2  1  1  6
  2  3  1  0
  3  4  1  0
  4  5  1  0
  5  6  1  0
  6  7  1  6
  6  8  1  0
  4  9  1  0
  9 10  2  0
 10 11  1  0
 11 12  2  0
 12 13  1  0
 13 14  1  0
 14 15  2  0
 14 16  1  0
 16 17  2  0
 17 18  1  0
 18 19  2  0
 19 20  1  0
 20 21  2  0
 21 22  1  0
 20 23  1  0
 23 24  2  0
 24 25  1  0
 25 26  2  0
 26 27  1  0
 27 28  1  0
 28 29  1  0
 28 30  1  0
 28 31  1  0
 26 32  1  0
 32 33  2  0
 12 34  1  0
 34 35  2  0
  8  2  1  0
 35  9  1  0
 21 16  1  0
 33 23  1  0
M  END
$$$$
1626748
     RDKit          2D

 45 46  0  0  0  0  0  0  0  0999 V2000
    3.0000    0.0000    0.0000 C   0  0  0  0  0  0  0  0  0  0  0  0
    1.5000    0.0000    0.0000 C   0  0  0  0  0  0  0  0  0  0  0  0
    0.7500   -1.2990    0.0000 C   0  0  0  0  0  0  0  0  0  0  0  0
   -0.7500   -1.2990    0.0000 N   0  0  0  0  0  0  0  0  0  0  0  0
   -1.5000    0.0000    0.0000 C   0  0  0  0  0  0  0  0  0  0  0  0
   -0.7500    1.2990    0.0000 C   0  0  0  0  0  0  0  0  0  0  0  0
   -1.5000    2.5981    0.0000 C   0  0  0  0  0  0  0  0  0  0  0  0
    0.7500    1.2990    0.0000 O   0  0  0  0  0  0  0  0  0  0  0  0
   -1.5000   -2.5981    0.0000 C   0  0  0  0  0  0  0  0  0  0  0  0
   -3.0000   -2.5981    0.0000 C   0  0  0  0  0  0  0  0  0  0  0  0
   -3.7500   -3.8971    0.0000 C   0  0  0  0  0  0  0  0  0  0  0  0
   -3.0000   -5.1962    0.0000 C   0  0  0  0  0  0  0  0  0  0  0  0
   -3.7500   -6.4952    0.0000 N   0  0  0  0  0  0  0  0  0  0  0  0
   -5.2500   -6.4952    0.0000 C   0  0  0  0  0  0  0  0  0  0  0  0
   -6.0000   -5.1962    0.0000 O   0  0  0  0  0  0  0  0  0  0  0  0
   -6.0000   -7.7942    0.0000 C   0  0  0  0  0  0  0  0  0  0  0  0
   -7.5000   -7.7942    0.0000 C   0  0  0  0  0  0  0  0  0  0  0  0
   -8.2500   -9.0933    0.0000 C   0  0  0  0  0  0  0  0  0  0  0  0
   -7.5000  -10.3923    0.0000 C   0  0  0  0  0  0  0  0  0  0  0  0
   -6.0000  -10.3923    0.0000 C   0  0  0  0  0  0  0  0  0  0  0  0
   -5.2500   -9.0933    0.0000 C   0  0  0  0  0  0  0  0  0  0  0  0
   -3.7500   -9.0933    0.0000 C   0  0  0  0  0  0  0  0  0  0  0  0
   -5.2500  -11.6913    0.0000 C   0  0  0  0  0  0  0  0  0  0  0  0
   -6.0000  -12.9904    0.0000 C   0  0  0  0  0  0  0  0  0  0  0  0
   -5.2500  -14.2894    0.0000 C   0  0  0  0  0  0  0  0  0  0  0  0
   -3.7500  -14.2894    0.0000 C   0  0  0  0  0  0  0  0  0  0  0  0
   -3.0000  -15.5885    0.0000 O   0  0  0  0  0  0  0  0  0  0  0  0
   -3.7500  -16.8875    0.0000 C   0  0  0  0  0  0  0  0  0  0  0  0
   -4.5000  -18.1865    0.0000 F   0  0  0  0  0  0  0  0  0  0  0  0
   -2.4510  -17.6375    0.0000 F   0  0  0  0  0  0  0  0  0  0  0  0
   -5.0490  -16.1375    0.0000 F   0  0  0  0  0  0  0  0  0  0  0  0
   -3.0000  -12.9904    0.0000 C   0  0  0  0  0  0  0  0  0  0  0  0
   -3.7500  -11.6913    0.0000 C   0  0  0  0  0  0  0  0  0  0  0  0
   -1.5000   -5.1962    0.0000 C   0  0  0  0  0  0  0  0  0  0  0  0
   -0.7500   -3.8971    0.0000 N   0  0  0  0  0  0  0  0  0  0  0  0
    4.0000    0.0000    0.0000 O   0  0  0  0  0  0  0  0  0  0  0  0
    5.2990    0.7500    0.0000 P   0  0  0  0  0  0  0  0  0  0  0  0
    6.5981    1.5000    0.0000 O   0  0  0  0  0  0  0  0  0  0  0  0
    4.5490    2.0490    0.0000 O   0  0  0  0  0  0  0  0  0  0  0  0
    6.0490   -0.5490    0.0000 O   0  0  0  0  0  0  0  0  0  0  0  0
    7.5981    0.0000    0.0000 O   0  0  0  0  0  0  0  0  0  0  0  0
    8.8971    0.7500    0.0000 P   0  0  0  0  0  0  0  0  0  0  0  0
   10.1962    1.5000    0.0000 O   0  0  0  0  0  0  0  0  0  0  0  0
    8.1471    2.0490    0.0000 O   0  0  0  0  0  0  0  0  0  0  0  0
    9.6471   -0.5490    0.0000 O   0  0  0  0  0  0  0  0  0  0  0  0
  2  1  1  6
  2  3  1  0
  3  4  1  0
  4  5  1  0
  5  6  1  0
  6  7  1  6
  6  8  1  0
  4  9  1  0
  9 10  2  0
 10 11  1  0
 11 12  2  0
 12 13  1  0
 13 14  1  0
 14 15  2  0
 14 16  1  0
 16 17  2  0
 17 18  1  0
 18 19  2  0
 19 20  1  0
 20 21  2  0
 21 22  1  0
 20 23  1  0
 23 24  2  0
 24 25  1  0
 25 26  2  0
 26 27  1  0
 27 28  1  0
 28 29  1  0
 28 30  1  0
 28 31  1  0
 26 32  1  0
 32 33  2  0
 12 34  1  0
 34 35  2  0
 36 37  1  0
 37 38  2  0
 37 39  1  0
 37 40  1  0
 41 42  1  0
 42 43  2  0
 42 44  1  0
 42 45  1  0
  8  2  1  0
 35  9  1  0
 21 16  1  0
 33 23  1  0
M  END
$$$$
365281
     RDKit          2D

 28 31  0  0  0  0  0  0  0  0999 V2000
   -2.2500   -9.0044    0.0000 C   0  0  0  0  0  0  0  0  0  0  0  0
   -2.2500   -7.5044    0.0000 C   0  0  0  0  0  0  0  0  0  0  0  0
   -1.0365   -6.6227    0.0000 C   0  0  0  0  0  0  0  0  0  0  0  0
   -1.5000   -5.1962    0.0000 C   0  0  0  0  0  0  0  0  0  0  0  0
   -0.7500   -3.8971    0.0000 C   0  0  0  0  0  0  0  0  0  0  0  0
    0.7500   -3.8971    0.0000 C   0  0  0  0  0  0  0  0  0  0  0  0
    1.5000   -2.5981    0.0000 C   0  0  0  0  0  0  0  0  0  0  0  0
    0.7500   -1.2990    0.0000 C   0  0  0  0  0  0  0  0  0  0  0  0
    1.5000    0.0000    0.0000 C   0  0  0  0  0  0  0  0  0  0  0  0
    0.7500    1.2990    0.0000 C   0  0  0  0  0  0  0  0  0  0  0  0
    1.5000    2.5981    0.0000 O   0  0  0  0  0  0  0  0  0  0  0  0
   -0.7500    1.2990    0.0000 C   0  0  0  0  0  0  0  0  0  0  0  0
   -1.5000    0.0000    0.0000 C   0  0  0  0  0  0  0  0  0  0  0  0
   -0.7500   -1.2990    0.0000 C   0  0  0  0  0  0  0  0  0  0  0  0
   -2.2500   -1.2990    0.0000 C   0  0  0  0  0  0  0  0  0  0  0  0
   -1.5000   -2.5981    0.0000 C   0  0  0  0  0  0  0  0  0  0  0  0
   -2.2500   -3.8971    0.0000 F   0  0  0  0  0  0  0  0  0  0  0  0
   -3.0000   -2.5981    0.0000 C   0  0  0  0  0  0  0  0  0  0  0  0
   -3.7500   -1.2990    0.0000 O   0  0  0  0  0  0  0  0  0  0  0  0
   -3.7500   -3.8971    0.0000 C   0  0  0  0  0  0  0  0  0  0  0  0
   -3.0000   -5.1962    0.0000 C   0  0  0  0  0  0  0  0  0  0  0  0
   -4.4998   -5.1699    0.0000 C   0  0  0  0  0  0  0  0  0  0  0  0
   -3.4635   -6.6227    0.0000 C   0  0  0  0  0  0  0  0  0  0  0  0
   -4.8980   -6.1842    0.0000 O   0  0  0  0  0  0  0  0  0  0  0  0
   -4.2135   -7.9218    0.0000 C   0  0  0  0  0  0  0  0  0  0  0  0
   -3.4635   -9.2208    0.0000 O   0  0  0  0  0  0  0  0  0  0  0  0
   -5.7135   -7.9218    0.0000 C   0  0  0  0  0  0  0  0  0  0  0  0
   -6.4635   -9.2208    0.0000 O   0  0  0  0  0  0  0  0  0  0  0  0
  2  1  1  1
  2  3  1  0
  4  3  1  6
  4  5  1  0
  5  6  1  1
  6  7  1  0
  7  8  1  0
  8  9  2  0
  9 10  1  0
 10 11  2  0
 10 12  1  0
 12 13  2  0
 13 14  1  0
 14 15  1  6
 14 16  1  0
 16 17  1  1
 16 18  1  0
 18 19  1  6
 18 20  1  0
 20 21  1  0
 21 22  1  6
 21 23  1  0
 23 24  1  1
 23 25  1  0
 25 26  2  0
 25 27  1  0
 27 28  1  0
 23  2  1  0
 21  4  1  0
 16  5  1  0
 14  8  1  0
M  END
$$$$
674293
     RDKit          2D

 31 34  0  0  0  0  0  0  0  0999 V2000
   -2.2500   -9.0044    0.0000 C   0  0  0  0  0  0  0  0  0  0  0  0
   -2.2500   -7.5044    0.0000 C   0  0  0  0  0  0  0  0  0  0  0  0
   -1.0365   -6.6227    0.0000 C   0  0  0  0  0  0  0  0  0  0  0  0
   -1.5000   -5.1962    0.0000 C   0  0  0  0  0  0  0  0  0  0  0  0
   -0.7500   -3.8971    0.0000 C   0  0  0  0  0  0  0  0  0  0  0  0
    0.7500   -3.8971    0.0000 C   0  0  0  0  0  0  0  0  0  0  0  0
    1.5000   -2.5981    0.0000 C   0  0  0  0  0  0  0  0  0  0  0  0
    3.0000   -2.5981    0.0000 F   0  0  0  0  0  0  0  0  0  0  0  0
    0.7500   -1.2990    0.0000 C   0  0  0  0  0  0  0  0  0  0  0  0
    1.5000    0.0000    0.0000 C   0  0  0  0  0  0  0  0  0  0  0  0
    0.7500    1.2990    0.0000 C   0  0  0  0  0  0  0  0  0  0  0  0
    1.5000    2.5981    0.0000 O   0  0  0  0  0  0  0  0  0  0  0  0
   -0.7500    1.2990    0.0000 C   0  0  0  0  0  0  0  0  0  0  0  0
   -1.5000    0.0000    0.0000 C   0  0  0  0  0  0  0  0  0  0  0  0
   -0.7500   -1.2990    0.0000 C   0  0  0  0  0  0  0  0  0  0  0  0
   -2.2500   -1.2990    0.0000 C   0  0  0  0  0  0  0  0  0  0  0  0
   -1.5000   -2.5981    0.0000 C   0  0  0  0  0  0  0  0  0  0  0  0
   -3.0000   -2.5981    0.0000 C   0  0  0  0  0  0  0  0  0  0  0  0
   -3.7500   -1.2990    0.0000 O   0  0  0  0  0  0  0  0  0  0  0  0
   -3.7500   -3.8971    0.0000 C   0  0  0  0  0  0  0  0  0  0  0  0
   -3.0000   -5.1962    0.0000 C   0  0  0  0  0  0  0  0  0  0  0  0
   -4.4998   -5.1699    0.0000 C   0  0  0  0  0  0  0  0  0  0  0  0
   -3.4635   -6.6227    0.0000 C   0  0  0  0  0  0  0  0  0  0  0  0
   -4.8980   -6.1842    0.0000 O   0  0  0  0  0  0  0  0  0  0  0  0
   -4.2135   -7.9218    0.0000 C   0  0  0  0  0  0  0  0  0  0  0  0
   -3.4635   -9.2208    0.0000 O   0  0  0  0  0  0  0  0  0  0  0  0
   -5.7135   -7.9218    0.0000 C   0  0  0  0  0  0  0  0  0  0  0  0
   -6.4635   -9.2208    0.0000 O   0  0  0  0  0  0  0  0  0  0  0  0
   -7.9635   -9.2208    0.0000 C   0  0  0  0  0  0  0  0  0  0  0  0
   -8.7135   -7.9218    0.0000 O   0  0  0  0  0  0  0  0  0  0  0  0
   -8.7135  -10.5199    0.0000 C   0  0  0  0  0  0  0  0  0  0  0  0
  2  1  1  1
  2  3  1  0
  4  3  1  6
  4  5  1  0
  5  6  1  1
  6  7  1  0
  7  8  1  1
  7  9  1  0
  9 10  2  0
 10 11  1  0
 11 12  2  0
 11 13  1  0
 13 14  2  0
 14 15  1  0
 15 16  1  6
 15 17  1  0
 17 18  1  6
 18 19  1  6
 18 20  1  0
 20 21  1  0
 21 22  1  6
 21 23  1  0
 23 24  1  1
 23 25  1  0
 25 26  2  0
 25 27  1  0
 27 28  1  0
 28 29  1  0
 29 30  2  0
 29 31  1  0
 23  2  1  0
 21  4  1  0
 17  5  1  0
 15  9  1  0
M  END
$$$$
8873
     RDKit          2D

 65 67  0  0  0  0  0  0  0  0999 V2000
   -4.4432  -18.1916    0.0000 C   0  0  0  0  0  0  0  0  0  0  0  0
   -4.4432  -16.6916    0.0000 C   0  0  0  0  0  0  0  0  0  0  0  0
   -2.9489  -16.5609    0.0000 O   0  0  0  0  0  0  0  0  0  0  0  0
   -1.5000  -16.1726    0.0000 C   0  0  0  0  0  0  0  0  0  0  0  0
   -0.9870  -17.5822    0.0000 O   0  0  0  0  0  0  0  0  0  0  0  0
   -0.1405  -15.5387    0.0000 C   0  0  0  0  0  0  0  0  0  0  0  0
    1.0882  -14.6784    0.0000 C   0  0  0  0  0  0  0  0  0  0  0  0
    2.0524  -15.8274    0.0000 O   0  0  0  0  0  0  0  0  0  0  0  0
    2.1488  -13.6177    0.0000 C   0  0  0  0  0  0  0  0  0  0  0  0
    3.0092  -12.3890    0.0000 C   0  0  0  0  0  0  0  0  0  0  0  0
    4.3083  -13.1390    0.0000 O   0  0  0  0  0  0  0  0  0  0  0  0
    3.6431  -11.0295    0.0000 C   0  0  0  0  0  0  0  0  0  0  0  0
    4.0314   -9.5806    0.0000 C   0  0  0  0  0  0  0  0  0  0  0  0
    4.1621   -8.0863    0.0000 C   0  0  0  0  0  0  0  0  0  0  0  0
    5.6621   -8.0863    0.0000 O   0  0  0  0  0  0  0  0  0  0  0  0
    4.0314   -6.5920    0.0000 C   0  0  0  0  0  0  0  0  0  0  0  0
    5.5086   -6.3316    0.0000 O   0  0  0  0  0  0  0  0  0  0  0  0
    3.6431   -5.1431    0.0000 C   0  0  0  0  0  0  0  0  0  0  0  0
    3.0092   -3.7837    0.0000 C   0  0  0  0  0  0  0  0  0  0  0  0
    4.3083   -3.0337    0.0000 O   0  0  0  0  0  0  0  0  0  0  0  0
    2.1488   -2.5550    0.0000 C   0  0  0  0  0  0  0  0  0  0  0  0
    0.7500   -1.2990    0.0000 C   0  0  0  0  0  0  0  0  0  0  0  0
    1.4337   -2.0069    0.0000 O   0  0  0  0  0  0  0  0  0  0  0  0
    1.5000    0.0000    0.0000 C   0  0  0  0  0  0  0  0  0  0  0  0
    0.7500    1.2990    0.0000 C   0  0  0  0  0  0  0  0  0  0  0  0
    1.5000    2.5981    0.0000 O   0  0  0  0  0  0  0  0  0  0  0  0
   -0.7500    1.2990    0.0000 C   0  0  0  0  0  0  0  0  0  0  0  0
   -1.5000    0.0000    0.0000 C   0  0  0  0  0  0  0  0  0  0  0  0
   -2.9489    0.3882    0.0000 C   0  0  0  0  0  0  0  0  0  0  0  0
   -4.4432    0.5190    0.0000 C   0  0  0  0  0  0  0  0  0  0  0  0
   -4.4432    2.0190    0.0000 O   0  0  0  0  0  0  0  0  0  0  0  0
   -5.7422    2.7690    0.0000 C   0  0  0  0  0  0  0  0  0  0  0  0
   -5.7422    4.2690    0.0000 O   0  0  0  0  0  0  0  0  0  0  0  0
   -7.0413    5.0190    0.0000 C   0  0  0  0  0  0  0  0  0  0  0  0
   -7.0413    6.5190    0.0000 C   0  0  0  0  0  0  0  0  0  0  0  0
   -8.3403    4.2690    0.0000 C   0  0  0  0  0  0  0  0  0  0  0  0
   -9.6393    5.0190    0.0000 O   0  0  0  0  0  0  0  0  0  0  0  0
   -8.3403    2.7690    0.0000 C   0  0  0  0  0  0  0  0  0  0  0  0
   -9.6393    2.0190    0.0000 N   0  0  0  0  0  0  0  0  0  0  0  0
   -7.0413    2.0190    0.0000 C   0  0  0  0  0  0  0  0  0  0  0  0
   -7.3353    0.8401    0.0000 O   0  0  0  0  0  0  0  0  0  0  0  0
   -5.9375    0.3882    0.0000 C   0  0  0  0  0  0  0  0  0  0  0  0
   -7.3864   -0.0000    0.0000 C   0  0  0  0  0  0  0  0  0  0  0  0
   -8.7458   -0.6339    0.0000 C   0  0  0  0  0  0  0  0  0  0  0  0
   -9.9746   -1.4943    0.0000 C   0  0  0  0  0  0  0  0  0  0  0  0
  -11.0352   -2.5550    0.0000 C   0  0  0  0  0  0  0  0  0  0  0  0
  -11.8956   -3.7837    0.0000 C   0  0  0  0  0  0  0  0  0  0  0  0
  -12.5295   -5.1431    0.0000 C   0  0  0  0  0  0  0  0  0  0  0  0
  -12.9177   -6.5920    0.0000 C   0  0  0  0  0  0  0  0  0  0  0  0
  -13.0485   -8.0863    0.0000 C   0  0  0  0  0  0  0  0  0  0  0  0
  -12.9177   -9.5806    0.0000 C   0  0  0  0  0  0  0  0  0  0  0  0
  -12.5295  -11.0295    0.0000 C   0  0  0  0  0  0  0  0  0  0  0  0
  -11.8956  -12.3890    0.0000 C   0  0  0  0  0  0  0  0  0  0  0  0
  -11.0352  -13.6177    0.0000 C   0  0  0  0  0  0  0  0  0  0  0  0
   -9.9746  -14.6784    0.0000 C   0  0  0  0  0  0  0  0  0  0  0  0
   -8.7458  -15.5387    0.0000 C   0  0  0  0  0  0  0  0  0  0  0  0
   -9.4958  -16.8378    0.0000 C   0  0  0  0  0  0  0  0  0  0  0  0
   -7.3864  -16.1726    0.0000 C   0  0  0  0  0  0  0  0  0  0  0  0
   -7.8994  -17.5822    0.0000 O   0  0  0  0  0  0  0  0  0  0  0  0
   -5.9375  -16.5609    0.0000 C   0  0  0  0  0  0  0  0  0  0  0  0
   -6.1979  -18.0381    0.0000 C   0  0  0  0  0  0  0  0  0  0  0  0
   -0.7500   -1.2990    0.0000 O   0  0  0  0  0  0  0  0  0  0  0  0
   -1.5000    2.5981    0.0000 C   0  0  0  0  0  0  0  0  0  0  0  0
   -3.0000    2.5981    0.0000 O   0  0  0  0  0  0  0  0  0  0  0  0
   -0.7500    3.8971    0.0000 O   0  0  0  0  0  0  0  0  0  0  0  0
  2  1  1  1
  2  3  1  0
  3  4  1  0
  4  5  2  0
  4  6  1  0
  6  7  1  0
  7  8  1  1
  7  9  1  0
  9 10  1  0
 10 11  1  1
 10 12  1  0
 12 13  1  0
 13 14  1  0
 14 15  1  6
 14 16  1  0
 16 17  1  1
 16 18  1  0
 18 19  1  0
 19 20  1  1
 19 21  1  0
 21 22  1  0
 22 23  1  6
 22 24  1  0
 24 25  1  0
 25 26  1  1
 25 27  1  0
 27 28  1  0
 28 29  1  1
 29 30  1  0
 30 31  1  6
 32 31  1  1
 32 33  1  0
 33 34  1  0
 34 35  1  1
 34 36  1  0
 36 37  1  6
 36 38  1  0
 38 39  1  1
 38 40  1  0
 40 41  1  1
 30 42  1  0
 42 43  2  0
 43 44  1  0
 44 45  2  0
 45 46  1  0
 46 47  2  0
 47 48  1  0
 48 49  2  0
 49 50  1  0
 50 51  2  0
 51 52  1  0
 52 53  2  0
 53 54  1  0
 54 55  2  0
 55 56  1  0
 56 57  1  1
 56 58  1  0
 58 59  1  6
 58 60  1  0
 60 61  1  6
 28 62  1  0
 27 63  1  6
 63 64  2  0
 63 65  1  0
 60  2  1  0
 62 22  1  0
 40 32  1  0
M  END
$$$$
381643
     RDKit          2D

 65 67  0  0  0  0  0  0  0  0999 V2000
   -4.4432  -18.1916    0.0000 C   0  0  0  0  0  0  0  0  0  0  0  0
   -4.4432  -16.6916    0.0000 C   0  0  0  0  0  0  0  0  0  0  0  0
   -2.9489  -16.5609    0.0000 O   0  0  0  0  0  0  0  0  0  0  0  0
   -1.5000  -16.1726    0.0000 C   0  0  0  0  0  0  0  0  0  0  0  0
   -0.9870  -17.5822    0.0000 O   0  0  0  0  0  0  0  0  0  0  0  0
   -0.1405  -15.5387    0.0000 C   0  0  0  0  0  0  0  0  0  0  0  0
    1.0882  -14.6784    0.0000 C   0  0  0  0  0  0  0  0  0  0  0  0
    2.0524  -15.8274    0.0000 O   0  0  0  0  0  0  0  0  0  0  0  0
    2.1488  -13.6177    0.0000 C   0  0  0  0  0  0  0  0  0  0  0  0
    3.0092  -12.3890    0.0000 C   0  0  0  0  0  0  0  0  0  0  0  0
    4.3083  -13.1390    0.0000 O   0  0  0  0  0  0  0  0  0  0  0  0
    3.6431  -11.0295    0.0000 C   0  0  0  0  0  0  0  0  0  0  0  0
    4.0314   -9.5806    0.0000 C   0  0  0  0  0  0  0  0  0  0  0  0
    5.5086   -9.8411    0.0000 O   0  0  0  0  0  0  0  0  0  0  0  0
    4.1621   -8.0863    0.0000 C   0  0  0  0  0  0  0  0  0  0  0  0
    4.0314   -6.5920    0.0000 C   0  0  0  0  0  0  0  0  0  0  0  0
    3.6431   -5.1431    0.0000 C   0  0  0  0  0  0  0  0  0  0  0  0
    5.0527   -4.6301    0.0000 O   0  0  0  0  0  0  0  0  0  0  0  0
    3.0092   -3.7837    0.0000 C   0  0  0  0  0  0  0  0  0  0  0  0
    4.3083   -3.0337    0.0000 O   0  0  0  0  0  0  0  0  0  0  0  0
    2.1488   -2.5550    0.0000 C   0  0  0  0  0  0  0  0  0  0  0  0
    0.7500   -1.2990    0.0000 C   0  0  0  0  0  0  0  0  0  0  0  0
    1.4337   -2.0069    0.0000 O   0  0  0  0  0  0  0  0  0  0  0  0
    1.5000    0.0000    0.0000 C   0  0  0  0  0  0  0  0  0  0  0  0
    0.7500    1.2990    0.0000 C   0  0  0  0  0  0  0  0  0  0  0  0
    1.5000    2.5981    0.0000 O   0  0  0  0  0  0  0  0  0  0  0  0
   -0.7500    1.2990    0.0000 C   0  0  0  0  0  0  0  0  0  0  0  0
   -1.5000    0.0000    0.0000 C   0  0  0  0  0  0  0  0  0  0  0  0
   -2.9489    0.3882    0.0000 C   0  0  0  0  0  0  0  0  0  0  0  0
   -4.4432    0.5190    0.0000 C   0  0  0  0  0  0  0  0  0  0  0  0
   -4.4432    2.0190    0.0000 O   0  0  0  0  0  0  0  0  0  0  0  0
   -5.7422    2.7690    0.0000 C   0  0  0  0  0  0  0  0  0  0  0  0
   -5.7422    4.2690    0.0000 O   0  0  0  0  0  0  0  0  0  0  0  0
   -7.0413    5.0190    0.0000 C   0  0  0  0  0  0  0  0  0  0  0  0
   -7.0413    6.5190    0.0000 C   0  0  0  0  0  0  0  0  0  0  0  0
   -8.3403    4.2690    0.0000 C   0  0  0  0  0  0  0  0  0  0  0  0
   -9.6393    5.0190    0.0000 O   0  0  0  0  0  0  0  0  0  0  0  0
   -8.3403    2.7690    0.0000 C   0  0  0  0  0  0  0  0  0  0  0  0
   -9.6393    2.0190    0.0000 N   0  0  0  0  0  0  0  0  0  0  0  0
   -7.0413    2.0190    0.0000 C   0  0  0  0  0  0  0  0  0  0  0  0
   -7.3353    0.8401    0.0000 O   0  0  0  0  0  0  0  0  0  0  0  0
   -5.9375    0.3882    0.0000 C   0  0  0  0  0  0  0  0  0  0  0  0
   -7.3864   -0.0000    0.0000 C   0  0  0  0  0  0  0  0  0  0  0  0
   -8.7458   -0.6339    0.0000 C   0  0  0  0  0  0  0  0  0  0  0  0
   -9.9746   -1.4943    0.0000 C   0  0  0  0  0  0  0  0  0  0  0  0
  -11.0352   -2.5550    0.0000 C   0  0  0  0  0  0  0  0  0  0  0  0
  -11.8956   -3.7837    0.0000 C   0  0  0  0  0  0  0  0  0  0  0  0
  -12.5295   -5.1431    0.0000 C   0  0  0  0  0  0  0  0  0  0  0  0
  -12.9177   -6.5920    0.0000 C   0  0  0  0  0  0  0  0  0  0  0  0
  -13.0485   -8.0863    0.0000 C   0  0  0  0  0  0  0  0  0  0  0  0
  -12.9177   -9.5806    0.0000 C   0  0  0  0  0  0  0  0  0  0  0  0
  -12.5295  -11.0295    0.0000 C   0  0  0  0  0  0  0  0  0  0  0  0
  -11.8956  -12.3890    0.0000 C   0  0  0  0  0  0  0  0  0  0  0  0
  -11.0352  -13.6177    0.0000 C   0  0  0  0  0  0  0  0  0  0  0  0
   -9.9746  -14.6784    0.0000 C   0  0  0  0  0  0  0  0  0  0  0  0
   -8.7458  -15.5387    0.0000 C   0  0  0  0  0  0  0  0  0  0  0  0
   -9.4958  -16.8378    0.0000 C   0  0  0  0  0  0  0  0  0  0  0  0
   -7.3864  -16.1726    0.0000 C   0  0  0  0  0  0  0  0  0  0  0  0
   -7.8994  -17.5822    0.0000 O   0  0  0  0  0  0  0  0  0  0  0  0
   -5.9375  -16.5609    0.0000 C   0  0  0  0  0  0  0  0  0  0  0  0
   -6.1979  -18.0381    0.0000 C   0  0  0  0  0  0  0  0  0  0  0  0
   -0.7500   -1.2990    0.0000 O   0  0  0  0  0  0  0  0  0  0  0  0
   -1.5000    2.5981    0.0000 C   0  0  0  0  0  0  0  0  0  0  0  0
   -3.0000    2.5981    0.0000 O   0  0  0  0  0  0  0  0  0  0  0  0
   -0.7500    3.8971    0.0000 O   0  0  0  0  0  0  0  0  0  0  0  0
  2  1  1  1
  2  3  1  0
  3  4  1  0
  4  5  2  0
  4  6  1  0
  6  7  1  0
  7  8  1  1
  7  9  1  0
  9 10  1  0
 10 11  1  1
 10 12  1  0
 12 13  1  0
 13 14  1  1
 13 15  1  0
 15 16  1  0
 16 17  1  0
 17 18  1  6
 17 19  1  0
 19 20  1  1
 19 21  1  0
 21 22  1  0
 22 23  1  6
 22 24  1  0
 24 25  1  0
 25 26  1  1
 25 27  1  0
 27 28  1  0
 28 29  1  1
 29 30  1  0
 30 31  1  6
 32 31  1  6
 32 33  1  0
 33 34  1  0
 34 35  1  6
 34 36  1  0
 36 37  1  1
 36 38  1  0
 38 39  1  6
 38 40  1  0
 40 41  1  6
 30 42  1  0
 42 43  2  0
 43 44  1  0
 44 45  2  0
 45 46  1  0
 46 47  2  0
 47 48  1  0
 48 49  2  0
 49 50  1  0
 50 51  1  0
 51 52  1  0
 52 53  2  0
 53 54  1  0
 54 55  2  0
 55 56  1  0
 56 57  1  1
 56 58  1  0
 58 59  1  6
 58 60  1  0
 60 61  1  6
 28 62  1  0
 27 63  1  6
 63 64  2  0
 63 65  1  0
 60  2  1  0
 62 22  1  0
 40 32  1  0
M  END
$$$$
581859
     RDKit          2D

  8  8  0  0  0  0  0  0  0  0999 V2000
    2.3660    0.0000    0.0000 C   0  0  0  0  0  0  0  0  0  0  0  0
    0.8660    0.0000    0.0000 C   0  0  0  0  0  0  0  0  0  0  0  0
   -0.4330    0.7500    0.0000 O   0  0  0  0  0  0  0  0  0  0  0  0
   -0.4330   -0.7500    0.0000 C   0  0  0  0  0  0  0  0  0  0  0  0
   -1.1830   -2.0490    0.0000 P   0  0  0  0  0  0  0  0  0  0  0  0
   -1.9330   -3.3481    0.0000 O   0  0  0  0  0  0  0  0  0  0  0  0
   -2.4821   -1.2990    0.0000 O   0  0  0  0  0  0  0  0  0  0  0  0
    0.1160   -2.7990    0.0000 O   0  0  0  0  0  0  0  0  0  0  0  0
  2  1  1  1
  2  3  1  0
  3  4  1  0
  4  5  1  1
  5  6  2  0
  5  7  1  0
  5  8  1  0
  4  2  1  0
M  END
$$$$
674282
     RDKit          2D

 16 15  0  0  0  0  0  0  0  0999 V2000
    2.3660    0.0000    0.0000 C   0  0  0  0  0  0  0  0  0  0  0  0
    0.8660    0.0000    0.0000 C   0  0  0  0  0  0  0  0  0  0  0  0
   -0.4330    0.7500    0.0000 O   0  0  0  0  0  0  0  0  0  0  0  0
   -0.4330   -0.7500    0.0000 C   0  0  0  0  0  0  0  0  0  0  0  0
   -1.1830   -2.0490    0.0000 P   0  0  0  0  0  0  0  0  0  0  0  0
   -1.9330   -3.3481    0.0000 O   0  0  0  0  0  0  0  0  0  0  0  0
    0.1160   -2.7990    0.0000 O   0  0  0  0  0  0  0  0  0  0  0  0
   -2.4821   -1.2990    0.0000 O   0  0  0  0  0  1  0  0  0  0  0  0
    0.5490    4.3481    0.0000 N   0  0  0  0  0  4  0  0  0  0  0  0
    1.2990    3.0490    0.0000 C   0  0  0  0  0  0  0  0  0  0  0  0
    0.0000    2.2990    0.0000 C   0  0  0  0  0  0  0  0  0  0  0  0
   -1.2990    3.0490    0.0000 O   0  0  0  0  0  0  0  0  0  0  0  0
    2.5981    3.7990    0.0000 C   0  0  0  0  0  0  0  0  0  0  0  0
    2.5981    5.2990    0.0000 O   0  0  0  0  0  0  0  0  0  0  0  0
    2.0490    1.7500    0.0000 C   0  0  0  0  0  0  0  0  0  0  0  0
    3.5490    1.7500    0.0000 O   0  0  0  0  0  0  0  0  0  0  0  0
  2  1  1  1
  2  3  1  0
  3  4  1  0
  4  5  1  1
  5  6  2  0
  5  7  1  0
  5  8  1  0
  9 10  1  0
 10 11  1  0
 11 12  1  0
 10 13  1  0
 13 14  1  0
 10 15  1  0
 15 16  1  0
  4  2  1  0
M  CHG  2   8  -1   9   1
M  END
$$$$
371546
     RDKit          2D

 32 35  0  0  0  0  0  0  0  0999 V2000
   -3.0000   -2.5981    0.0000 C   0  0  0  0  0  0  0  0  0  0  0  0
   -1.5000   -2.5981    0.0000 C   0  0  0  0  0  0  0  0  0  0  0  0
   -0.7500   -3.8971    0.0000 C   0  0  0  0  0  0  0  0  0  0  0  0
   -1.5000   -5.1962    0.0000 C   0  0  0  0  0  0  0  0  0  0  0  0
   -3.0000   -5.1962    0.0000 O   0  0  0  0  0  0  0  0  0  0  0  0
   -0.7500   -6.4952    0.0000 C   0  0  0  0  0  0  0  0  0  0  0  0
   -1.5000   -7.7942    0.0000 C   0  0  0  0  0  0  0  0  0  0  0  0
   -3.0000   -7.7942    0.0000 N   0  0  0  0  0  0  0  0  0  0  0  0
   -3.7500   -9.0933    0.0000 C   0  0  0  0  0  0  0  0  0  0  0  0
   -3.7500   -6.4952    0.0000 C   0  0  0  0  0  0  0  0  0  0  0  0
   -0.7500   -9.0933    0.0000 C   0  0  0  0  0  0  0  0  0  0  0  0
    0.7500   -9.0933    0.0000 C   0  0  0  0  0  0  0  0  0  0  0  0
    1.5000  -10.3923    0.0000 C   0  0  0  0  0  0  0  0  0  0  0  0
    3.0000  -10.3923    0.0000 O   0  0  0  0  0  0  0  0  0  0  0  0
    0.7500  -11.6913    0.0000 N   0  0  0  0  0  0  0  0  0  0  0  0
    1.5000   -7.7942    0.0000 C   0  0  0  0  0  0  0  0  0  0  0  0
    3.0000   -7.7942    0.0000 O   0  0  0  0  0  0  0  0  0  0  0  0
    0.7500   -6.4952    0.0000 C   0  0  0  0  0  0  0  0  0  0  0  0
    2.2500   -6.4952    0.0000 O   0  0  0  0  0  0  0  0  0  0  0  0
    1.5000   -5.1962    0.0000 C   0  0  0  0  0  0  0  0  0  0  0  0
    0.7500   -3.8971    0.0000 C   0  0  0  0  0  0  0  0  0  0  0  0
    1.5000   -2.5981    0.0000 C   0  0  0  0  0  0  0  0  0  0  0  0
    3.0000   -2.5981    0.0000 O   0  0  0  0  0  0  0  0  0  0  0  0
    0.7500   -1.2990    0.0000 C   0  0  0  0  0  0  0  0  0  0  0  0
    1.5000    0.0000    0.0000 C   0  0  0  0  0  0  0  0  0  0  0  0
    3.0000    0.0000    0.0000 O   0  0  0  0  0  0  0  0  0  0  0  0
    0.7500    1.2990    0.0000 C   0  0  0  0  0  0  0  0  0  0  0  0
   -0.7500    1.2990    0.0000 C   0  0  0  0  0  0  0  0  0  0  0  0
   -1.5000    0.0000    0.0000 C   0  0  0  0  0  0  0  0  0  0  0  0
   -0.7500   -1.2990    0.0000 C   0  0  0  0  0  0  0  0  0  0  0  0
    3.0000   -5.1962    0.0000 O   0  0  0  0  0  0  0  0  0  0  0  0
   -1.5000  -10.3923    0.0000 O   0  0  0  0  0  0  0  0  0  0  0  0
  2  1  1  1
  2  3  1  0
  3  4  1  0
  4  5  1  1
  4  6  1  0
  6  7  1  6
  7  8  1  1
  8  9  1  0
  8 10  1  0
  7 11  1  0
 11 12  2  0
 12 13  1  0
 13 14  2  0
 13 15  1  0
 12 16  1  0
 16 17  2  0
 16 18  1  0
 18 19  1  1
 18 20  1  0
 20 21  2  0
 21 22  1  0
 22 23  2  0
 22 24  1  0
 24 25  2  0
 25 26  1  0
 25 27  1  0
 27 28  2  0
 28 29  1  0
 29 30  2  0
 20 31  1  0
 11 32  1  0
 30  2  1  0
  3 21  1  6
 18  6  1  0
 30 24  1  0
M  END
$$$$
675187
     RDKit          2D

 16 16  0  0  0  0  0  0  0  0999 V2000
    4.5000   -2.5981    0.0000 C   0  0  0  0  0  0  0  0  0  0  0  0
    3.7500   -1.2990    0.0000 C   0  0  0  0  0  0  0  0  0  0  0  0
    3.0000    0.0000    0.0000 C   0  0  0  0  0  0  0  0  0  0  0  0
    1.5000    0.0000    0.0000 C   0  0  0  0  0  0  0  0  0  0  0  0
    0.7500   -1.2990    0.0000 C   0  0  0  0  0  0  0  0  0  0  0  0
   -0.7500   -1.2990    0.0000 C   0  0  0  0  0  0  0  0  0  0  0  0
   -1.5000    0.0000    0.0000 C   0  0  0  0  0  0  0  0  0  0  0  0
   -3.0000    0.0000    0.0000 O   0  0  0  0  0  0  0  0  0  0  0  0
   -0.7500    1.2990    0.0000 C   0  0  0  0  0  0  0  0  0  0  0  0
   -1.5000    2.5981    0.0000 O   0  0  0  0  0  0  0  0  0  0  0  0
    0.7500    1.2990    0.0000 C   0  0  0  0  0  0  0  0  0  0  0  0
    2.4510   -2.0490    0.0000 N   0  0  0  0  0  0  0  0  0  0  0  0
    2.4510   -3.5490    0.0000 N   0  0  0  0  0  0  0  0  0  0  0  0
    5.0490   -0.5490    0.0000 C   0  0  0  0  0  0  0  0  0  0  0  0
    5.0490    0.9510    0.0000 O   0  0  0  0  0  0  0  0  0  0  0  0
    6.3481   -1.2990    0.0000 O   0  0  0  0  0  0  0  0  0  0  0  0
  2  1  1  6
  2  3  1  0
  3  4  1  0
  4  5  2  0
  5  6  1  0
  6  7  2  0
  7  8  1  0
  7  9  1  0
  9 10  1  0
  9 11  2  0
  2 12  1  0
 12 13  1  0
  2 14  1  0
 14 15  2  0
 14 16  1  0
 11  4  1  0
M  END
$$$$
33307
     RDKit          2D

 35 37  0  0  0  0  0  0  0  0999 V2000
    1.6418    7.0824    0.0000 C   0  0  0  0  0  0  0  0  0  0  0  0
    1.3299    5.6152    0.0000 C   0  0  0  0  0  0  0  0  0  0  0  0
   -0.0967    5.1517    0.0000 C   0  0  0  0  0  0  0  0  0  0  0  0
   -0.4086    3.6844    0.0000 C   0  0  0  0  0  0  0  0  0  0  0  0
    0.7062    2.6807    0.0000 C   0  0  0  0  0  0  0  0  0  0  0  0
    0.3943    1.2135    0.0000 C   0  0  0  0  0  0  0  0  0  0  0  0
    1.2760    0.0000    0.0000 C   0  0  0  0  0  0  0  0  0  0  0  0
    0.3943   -1.2135    0.0000 C   0  0  0  0  0  0  0  0  0  0  0  0
   -1.0323   -0.7500    0.0000 N   0  0  0  0  0  0  0  0  0  0  0  0
   -2.2458   -1.6317    0.0000 C   0  0  0  0  0  0  0  0  0  0  0  0
   -2.0890   -3.1235    0.0000 C   0  0  0  0  0  0  0  0  0  0  0  0
   -3.3025   -4.0051    0.0000 C   0  0  0  0  0  0  0  0  0  0  0  0
   -3.1458   -5.4969    0.0000 O   0  0  0  0  0  0  0  0  0  0  0  0
   -1.0323    0.7500    0.0000 C   0  0  0  0  0  0  0  0  0  0  0  0
   -2.1470    1.7537    0.0000 C   0  0  0  0  0  0  0  0  0  0  0  0
   -1.8351    3.2209    0.0000 C   0  0  0  0  0  0  0  0  0  0  0  0
   -3.5736    1.2902    0.0000 C   0  0  0  0  0  0  0  0  0  0  0  0
   -3.8855   -0.1771    0.0000 O   0  0  0  0  0  0  0  0  0  0  0  0
   -4.6883    2.2939    0.0000 N   0  0  0  0  0  0  0  0  0  0  0  0
    2.4446    4.6115    0.0000 N   0  0  0  0  0  0  0  0  0  0  0  0
    3.8712    5.0750    0.0000 C   0  0  0  0  0  0  0  0  0  0  0  0
    4.9859    4.0713    0.0000 C   0  0  0  0  0  0  0  0  0  0  0  0
    6.4125    4.5348    0.0000 O   0  0  0  0  0  0  0  0  0  0  0  0
    7.5272    3.5312    0.0000 C   0  0  0  0  0  0  0  0  0  0  0  0
    7.2154    2.0639    0.0000 C   0  0  0  0  0  0  0  0  0  0  0  0
    8.3301    1.0602    0.0000 C   0  0  0  0  0  0  0  0  0  0  0  0
    9.7567    1.5238    0.0000 C   0  0  0  0  0  0  0  0  0  0  0  0
   10.0685    2.9910    0.0000 C   0  0  0  0  0  0  0  0  0  0  0  0
    8.9538    3.9947    0.0000 C   0  0  0  0  0  0  0  0  0  0  0  0
    9.2657    5.4619    0.0000 O   0  0  0  0  0  0  0  0  0  0  0  0
   10.6923    5.9254    0.0000 C   0  0  0  0  0  0  0  0  0  0  0  0
   11.0041    7.3926    0.0000 C   0  0  0  0  0  0  0  0  0  0  0  0
   11.3160    8.8599    0.0000 F   0  0  0  0  0  0  0  0  0  0  0  0
   12.4713    7.0808    0.0000 F   0  0  0  0  0  0  0  0  0  0  0  0
    9.5369    7.7045    0.0000 F   0  0  0  0  0  0  0  0  0  0  0  0
  2  1  1  1
  2  3  1  0
  3  4  1  0
  4  5  2  0
  5  6  1  0
  6  7  1  0
  7  8  1  0
  8  9  1  0
  9 10  1  0
 10 11  1  0
 11 12  1  0
 12 13  1  0
  9 14  1  0
 14 15  1  0
 15 16  2  0
 15 17  1  0
 17 18  2  0
 17 19  1  0
  2 20  1  0
 20 21  1  0
 21 22  1  0
 22 23  1  0
 23 24  1  0
 24 25  2  0
 25 26  1  0
 26 27  2  0
 27 28  1  0
 28 29  2  0
 29 30  1  0
 30 31  1  0
 31 32  1  0
 32 33  1  0
 32 34  1  0
 32 35  1  0
 16  4  1  0
 14  6  2  0
 29 24  1  0
M  END
$$$$
96021
     RDKit          2D

 14 14  0  0  0  0  0  0  0  0999 V2000
    5.2500   -1.2990    0.0000 C   0  0  0  0  0  0  0  0  0  0  0  0
    3.7500   -1.2990    0.0000 C   0  0  0  0  0  0  0  0  0  0  0  0
    3.0000    0.0000    0.0000 C   0  0  0  0  0  0  0  0  0  0  0  0
    1.5000    0.0000    0.0000 C   0  0  0  0  0  0  0  0  0  0  0  0
    0.7500   -1.2990    0.0000 C   0  0  0  0  0  0  0  0  0  0  0  0
   -0.7500   -1.2990    0.0000 C   0  0  0  0  0  0  0  0  0  0  0  0
   -1.5000    0.0000    0.0000 C   0  0  0  0  0  0  0  0  0  0  0  0
   -0.7500    1.2990    0.0000 C   0  0  0  0  0  0  0  0  0  0  0  0
    0.7500    1.2990    0.0000 C   0  0  0  0  0  0  0  0  0  0  0  0
    3.0000   -2.5981    0.0000 N   0  0  0  0  0  0  0  0  0  0  0  0
    3.7500   -3.8971    0.0000 C   0  0  0  0  0  0  0  0  0  0  0  0
    1.5000   -2.5981    0.0000 C   0  0  0  0  0  0  0  0  0  0  0  0
    0.7500   -3.8971    0.0000 C   0  0  0  0  0  0  0  0  0  0  0  0
    0.0000   -5.1962    0.0000 C   0  0  0  0  0  0  0  0  0  0  0  0
  2  1  1  1
  2  3  1  0
  3  4  1  0
  4  5  2  0
  5  6  1  0
  6  7  2  0
  7  8  1  0
  8  9  2  0
  2 10  1  0
 10 11  1  0
 10 12  1  0
 12 13  1  0
 13 14  3  0
  9  4  1  0
M  END
$$$$
442013
     RDKit          2D

 28 31  0  0  0  0  0  0  0  0999 V2000
   -5.2020   -8.5535    0.0000 C   0  0  0  0  0  0  0  0  0  0  0  0
   -4.8901   -7.0863    0.0000 C   0  0  0  0  0  0  0  0  0  0  0  0
   -6.0048   -6.0826    0.0000 C   0  0  0  0  0  0  0  0  0  0  0  0
   -7.4314   -6.5461    0.0000 C   0  0  0  0  0  0  0  0  0  0  0  0
   -8.5461   -5.5424    0.0000 C   0  0  0  0  0  0  0  0  0  0  0  0
   -8.2343   -4.0752    0.0000 O   0  0  0  0  0  0  0  0  0  0  0  0
   -9.9727   -6.0059    0.0000 O   0  0  0  0  0  0  0  0  0  0  0  0
   -3.4635   -6.6227    0.0000 C   0  0  0  0  0  0  0  0  0  0  0  0
   -2.2500   -7.5044    0.0000 C   0  0  0  0  0  0  0  0  0  0  0  0
   -1.0365   -6.6227    0.0000 C   0  0  0  0  0  0  0  0  0  0  0  0
   -1.5000   -5.1962    0.0000 C   0  0  0  0  0  0  0  0  0  0  0  0
   -0.7500   -3.8971    0.0000 C   0  0  0  0  0  0  0  0  0  0  0  0
    0.7500   -3.8971    0.0000 C   0  0  0  0  0  0  0  0  0  0  0  0
    1.5000   -5.1962    0.0000 O   0  0  0  0  0  0  0  0  0  0  0  0
    1.5000   -2.5981    0.0000 C   0  0  0  0  0  0  0  0  0  0  0  0
    0.7500   -1.2990    0.0000 C   0  0  0  0  0  0  0  0  0  0  0  0
    1.5000    0.0000    0.0000 C   0  0  0  0  0  0  0  0  0  0  0  0
    0.7500    1.2990    0.0000 C   0  0  0  0  0  0  0  0  0  0  0  0
    1.5000    2.5981    0.0000 O   0  0  0  0  0  0  0  0  0  0  0  0
   -0.7500    1.2990    0.0000 C   0  0  0  0  0  0  0  0  0  0  0  0
   -1.5000    0.0000    0.0000 C   0  0  0  0  0  0  0  0  0  0  0  0
   -0.7500   -1.2990    0.0000 C   0  0  0  0  0  0  0  0  0  0  0  0
   -2.2500   -1.2990    0.0000 C   0  0  0  0  0  0  0  0  0  0  0  0
   -1.5000   -2.5981    0.0000 C   0  0  0  0  0  0  0  0  0  0  0  0
   -3.0000   -2.5981    0.0000 C   0  0  0  0  0  0  0  0  0  0  0  0
   -3.7500   -3.8971    0.0000 C   0  0  0  0  0  0  0  0  0  0  0  0
   -3.0000   -5.1962    0.0000 C   0  0  0  0  0  0  0  0  0  0  0  0
   -4.4918   -5.3529    0.0000 C   0  0  0  0  0  0  0  0  0  0  0  0
  2  1  1  6
  2  3  1  0
  3  4  1  0
  4  5  1  0
  5  6  2  0
  5  7  1  0
  2  8  1  0
  8  9  1  6
  9 10  1  0
 11 10  1  6
 11 12  1  0
 12 13  1  1
 13 14  1  6
 13 15  1  0
 16 15  1  1
 16 17  1  0
 17 18  1  0
 18 19  1  1
 18 20  1  0
 20 21  1  0
 21 22  1  0
 22 23  1  6
 22 24  1  0
 24 25  1  6
 25 26  1  0
 26 27  1  0
 27 28  1  6
 27  8  1  0
 27 11  1  0
 24 12  1  0
 22 16  1  0
M  END
$$$$
404691
     RDKit          2D

 28 31  0  0  0  0  0  0  0  0999 V2000
   -5.2020   -8.5535    0.0000 C   0  0  0  0  0  0  0  0  0  0  0  0
   -4.8901   -7.0863    0.0000 C   0  0  0  0  0  0  0  0  0  0  0  0
   -6.0048   -6.0826    0.0000 C   0  0  0  0  0  0  0  0  0  0  0  0
   -7.4314   -6.5461    0.0000 C   0  0  0  0  0  0  0  0  0  0  0  0
   -8.5461   -5.5424    0.0000 C   0  0  0  0  0  0  0  0  0  0  0  0
   -8.2343   -4.0752    0.0000 O   0  0  0  0  0  0  0  0  0  0  0  0
   -9.9727   -6.0059    0.0000 O   0  0  0  0  0  0  0  0  0  0  0  0
   -3.4635   -6.6227    0.0000 C   0  0  0  0  0  0  0  0  0  0  0  0
   -2.2500   -7.5044    0.0000 C   0  0  0  0  0  0  0  0  0  0  0  0
   -1.0365   -6.6227    0.0000 C   0  0  0  0  0  0  0  0  0  0  0  0
   -1.5000   -5.1962    0.0000 C   0  0  0  0  0  0  0  0  0  0  0  0
   -0.7500   -3.8971    0.0000 C   0  0  0  0  0  0  0  0  0  0  0  0
    0.7500   -3.8971    0.0000 C   0  0  0  0  0  0  0  0  0  0  0  0
    1.5000   -5.1962    0.0000 O   0  0  0  0  0  0  0  0  0  0  0  0
    1.5000   -2.5981    0.0000 C   0  0  0  0  0  0  0  0  0  0  0  0
    0.7500   -1.2990    0.0000 C   0  0  0  0  0  0  0  0  0  0  0  0
    1.5000    0.0000    0.0000 C   0  0  0  0  0  0  0  0  0  0  0  0
    0.7500    1.2990    0.0000 C   0  0  0  0  0  0  0  0  0  0  0  0
    1.5000    2.5981    0.0000 O   0  0  0  0  0  0  0  0  0  0  0  0
   -0.7500    1.2990    0.0000 C   0  0  0  0  0  0  0  0  0  0  0  0
   -1.5000    0.0000    0.0000 C   0  0  0  0  0  0  0  0  0  0  0  0
   -0.7500   -1.2990    0.0000 C   0  0  0  0  0  0  0  0  0  0  0  0
   -2.2500   -1.2990    0.0000 C   0  0  0  0  0  0  0  0  0  0  0  0
   -1.5000   -2.5981    0.0000 C   0  0  0  0  0  0  0  0  0  0  0  0
   -3.0000   -2.5981    0.0000 C   0  0  0  0  0  0  0  0  0  0  0  0
   -3.7500   -3.8971    0.0000 C   0  0  0  0  0  0  0  0  0  0  0  0
   -3.0000   -5.1962    0.0000 C   0  0  0  0  0  0  0  0  0  0  0  0
   -4.4918   -5.3529    0.0000 C   0  0  0  0  0  0  0  0  0  0  0  0
  2  1  1  6
  2  3  1  0
  3  4  1  0
  4  5  1  0
  5  6  2  0
  5  7  1  0
  2  8  1  0
  8  9  1  6
  9 10  1  0
 11 10  1  6
 11 12  1  0
 12 13  1  1
 13 14  1  1
 13 15  1  0
 16 15  1  1
 16 17  1  0
 17 18  1  0
 18 19  1  1
 18 20  1  0
 20 21  1  0
 21 22  1  0
 22 23  1  6
 22 24  1  0
 24 25  1  6
 25 26  1  0
 26 27  1  0
 27 28  1  6
 27  8  1  0
 27 11  1  0
 24 12  1  0
 22 16  1  0
M  END
$$$$
343964
     RDKit          2D

 29 32  0  0  0  0  0  0  0  0999 V2000
   -5.2020   -8.5535    0.0000 C   0  0  0  0  0  0  0  0  0  0  0  0
   -4.8901   -7.0863    0.0000 C   0  0  0  0  0  0  0  0  0  0  0  0
   -6.0048   -6.0826    0.0000 C   0  0  0  0  0  0  0  0  0  0  0  0
   -7.4314   -6.5461    0.0000 C   0  0  0  0  0  0  0  0  0  0  0  0
   -8.5461   -5.5424    0.0000 C   0  0  0  0  0  0  0  0  0  0  0  0
   -8.2343   -4.0752    0.0000 O   0  0  0  0  0  0  0  0  0  0  0  0
   -9.9727   -6.0059    0.0000 O   0  0  0  0  0  0  0  0  0  0  0  0
   -3.4635   -6.6227    0.0000 C   0  0  0  0  0  0  0  0  0  0  0  0
   -2.2500   -7.5044    0.0000 C   0  0  0  0  0  0  0  0  0  0  0  0
   -1.0365   -6.6227    0.0000 C   0  0  0  0  0  0  0  0  0  0  0  0
   -1.5000   -5.1962    0.0000 C   0  0  0  0  0  0  0  0  0  0  0  0
   -0.7500   -3.8971    0.0000 C   0  0  0  0  0  0  0  0  0  0  0  0
    0.7500   -3.8971    0.0000 C   0  0  0  0  0  0  0  0  0  0  0  0
    1.5000   -5.1962    0.0000 O   0  0  0  0  0  0  0  0  0  0  0  0
    1.5000   -2.5981    0.0000 C   0  0  0  0  0  0  0  0  0  0  0  0
    0.7500   -1.2990    0.0000 C   0  0  0  0  0  0  0  0  0  0  0  0
    1.5000    0.0000    0.0000 C   0  0  0  0  0  0  0  0  0  0  0  0
    0.7500    1.2990    0.0000 C   0  0  0  0  0  0  0  0  0  0  0  0
    1.5000    2.5981    0.0000 O   0  0  0  0  0  0  0  0  0  0  0  0
   -0.7500    1.2990    0.0000 C   0  0  0  0  0  0  0  0  0  0  0  0
   -1.5000    0.0000    0.0000 C   0  0  0  0  0  0  0  0  0  0  0  0
   -0.7500   -1.2990    0.0000 C   0  0  0  0  0  0  0  0  0  0  0  0
   -2.2500   -1.2990    0.0000 C   0  0  0  0  0  0  0  0  0  0  0  0
   -1.5000   -2.5981    0.0000 C   0  0  0  0  0  0  0  0  0  0  0  0
   -3.0000   -2.5981    0.0000 C   0  0  0  0  0  0  0  0  0  0  0  0
   -3.7500   -3.8971    0.0000 C   0  0  0  0  0  0  0  0  0  0  0  0
   -5.2500   -3.8971    0.0000 O   0  0  0  0  0  0  0  0  0  0  0  0
   -3.0000   -5.1962    0.0000 C   0  0  0  0  0  0  0  0  0  0  0  0
   -4.4918   -5.3529    0.0000 C   0  0  0  0  0  0  0  0  0  0  0  0
  2  1  1  6
  2  3  1  0
  3  4  1  0
  4  5  1  0
  5  6  2  0
  5  7  1  0
  2  8  1  0
  8  9  1  6
  9 10  1  0
 11 10  1  6
 11 12  1  0
 12 13  1  1
 13 14  1  1
 13 15  1  0
 16 15  1  1
 16 17  1  0
 17 18  1  0
 18 19  1  1
 18 20  1  0
 20 21  1  0
 21 22  1  0
 22 23  1  6
 22 24  1  0
 24 25  1  6
 25 26  1  0
 26 27  1  1
 26 28  1  0
 28 29  1  6
 28  8  1  0
 28 11  1  0
 24 12  1  0
 22 16  1  0
M  END
$$$$
125261
     RDKit          2D

 29 31  0  0  0  0  0  0  0  0999 V2000
   -5.5085    0.2283    0.0000 C   0  0  0  0  0  0  0  0  0  0  0  0
   -4.0819    0.6918    0.0000 C   0  0  0  0  0  0  0  0  0  0  0  0
   -3.7701    2.1590    0.0000 C   0  0  0  0  0  0  0  0  0  0  0  0
   -4.8848    3.1627    0.0000 C   0  0  0  0  0  0  0  0  0  0  0  0
   -4.5729    4.6300    0.0000 C   0  0  0  0  0  0  0  0  0  0  0  0
   -5.6876    5.6337    0.0000 C   0  0  0  0  0  0  0  0  0  0  0  0
   -6.6913    4.5189    0.0000 C   0  0  0  0  0  0  0  0  0  0  0  0
   -4.6839    6.7484    0.0000 C   0  0  0  0  0  0  0  0  0  0  0  0
   -6.8024    6.6374    0.0000 O   0  0  0  0  0  0  0  0  0  0  0  0
   -2.9672   -0.3119    0.0000 C   0  0  0  0  0  0  0  0  0  0  0  0
   -3.1240   -1.8037    0.0000 C   0  0  0  0  0  0  0  0  0  0  0  0
   -1.7537   -2.4138    0.0000 C   0  0  0  0  0  0  0  0  0  0  0  0
   -0.7500   -1.2990    0.0000 C   0  0  0  0  0  0  0  0  0  0  0  0
    0.7500   -1.2990    0.0000 C   0  0  0  0  0  0  0  0  0  0  0  0
    1.5000   -2.5981    0.0000 C   0  0  0  0  0  0  0  0  0  0  0  0
    3.0000   -2.5981    0.0000 C   0  0  0  0  0  0  0  0  0  0  0  0
    3.7500   -3.8971    0.0000 C   0  0  0  0  0  0  0  0  0  0  0  0
    5.2500   -3.8971    0.0000 C   0  0  0  0  0  0  0  0  0  0  0  0
    6.0000   -5.1962    0.0000 C   0  0  0  0  0  0  0  0  0  0  0  0
    7.5000   -5.1962    0.0000 O   0  0  0  0  0  0  0  0  0  0  0  0
    5.2500   -6.4952    0.0000 C   0  0  0  0  0  0  0  0  0  0  0  0
    3.7500   -6.4952    0.0000 C   0  0  0  0  0  0  0  0  0  0  0  0
    3.0000   -5.1962    0.0000 C   0  0  0  0  0  0  0  0  0  0  0  0
    1.5000   -5.1962    0.0000 C   0  0  0  0  0  0  0  0  0  0  0  0
    1.5000    0.0000    0.0000 C   0  0  0  0  0  0  0  0  0  0  0  0
    0.7500    1.2990    0.0000 C   0  0  0  0  0  0  0  0  0  0  0  0
   -0.7500    1.2990    0.0000 C   0  0  0  0  0  0  0  0  0  0  0  0
   -1.5000    0.0000    0.0000 C   0  0  0  0  0  0  0  0  0  0  0  0
   -2.3817    1.2135    0.0000 C   0  0  0  0  0  0  0  0  0  0  0  0
  2  1  1  6
  2  3  1  0
  3  4  1  0
  4  5  1  0
  5  6  1  0
  6  7  1  0
  6  8  1  0
  6  9  1  0
  2 10  1  0
 10 11  1  6
 11 12  1  0
 13 12  1  6
 13 14  1  0
 14 15  2  0
 15 16  1  0
 16 17  2  0
 17 18  1  0
 18 19  1  0
 19 20  1  1
 19 21  1  0
 21 22  1  0
 22 23  1  0
 23 24  2  0
 14 25  1  0
 25 26  1  0
 26 27  1  0
 27 28  1  0
 28 29  1  6
 28 10  1  0
 28 13  1  0
 23 17  1  0
M  END
$$$$
63252
     RDKit          2D

 30 32  0  0  0  0  0  0  0  0999 V2000
   -5.5085    0.2283    0.0000 C   0  0  0  0  0  0  0  0  0  0  0  0
   -4.0819    0.6918    0.0000 C   0  0  0  0  0  0  0  0  0  0  0  0
   -3.7701    2.1590    0.0000 C   0  0  0  0  0  0  0  0  0  0  0  0
   -4.8848    3.1627    0.0000 C   0  0  0  0  0  0  0  0  0  0  0  0
   -4.5729    4.6300    0.0000 C   0  0  0  0  0  0  0  0  0  0  0  0
   -5.6876    5.6337    0.0000 C   0  0  0  0  0  0  0  0  0  0  0  0
   -6.6913    4.5189    0.0000 C   0  0  0  0  0  0  0  0  0  0  0  0
   -4.6839    6.7484    0.0000 C   0  0  0  0  0  0  0  0  0  0  0  0
   -6.8024    6.6374    0.0000 O   0  0  0  0  0  0  0  0  0  0  0  0
   -2.9672   -0.3119    0.0000 C   0  0  0  0  0  0  0  0  0  0  0  0
   -3.1240   -1.8037    0.0000 C   0  0  0  0  0  0  0  0  0  0  0  0
   -1.7537   -2.4138    0.0000 C   0  0  0  0  0  0  0  0  0  0  0  0
   -0.7500   -1.2990    0.0000 C   0  0  0  0  0  0  0  0  0  0  0  0
    0.7500   -1.2990    0.0000 C   0  0  0  0  0  0  0  0  0  0  0  0
    1.5000   -2.5981    0.0000 C   0  0  0  0  0  0  0  0  0  0  0  0
    3.0000   -2.5981    0.0000 C   0  0  0  0  0  0  0  0  0  0  0  0
    3.7500   -3.8971    0.0000 C   0  0  0  0  0  0  0  0  0  0  0  0
    5.2500   -3.8971    0.0000 C   0  0  0  0  0  0  0  0  0  0  0  0
    6.0000   -5.1962    0.0000 C   0  0  0  0  0  0  0  0  0  0  0  0
    7.5000   -5.1962    0.0000 O   0  0  0  0  0  0  0  0  0  0  0  0
    5.2500   -6.4952    0.0000 C   0  0  0  0  0  0  0  0  0  0  0  0
    3.7500   -6.4952    0.0000 C   0  0  0  0  0  0  0  0  0  0  0  0
    3.0000   -7.7942    0.0000 O   0  0  0  0  0  0  0  0  0  0  0  0
    3.0000   -5.1962    0.0000 C   0  0  0  0  0  0  0  0  0  0  0  0
    1.5000   -5.1962    0.0000 C   0  0  0  0  0  0  0  0  0  0  0  0
    1.5000    0.0000    0.0000 C   0  0  0  0  0  0  0  0  0  0  0  0
    0.7500    1.2990    0.0000 C   0  0  0  0  0  0  0  0  0  0  0  0
   -0.7500    1.2990    0.0000 C   0  0  0  0  0  0  0  0  0  0  0  0
   -1.5000    0.0000    0.0000 C   0  0  0  0  0  0  0  0  0  0  0  0
   -2.3817    1.2135    0.0000 C   0  0  0  0  0  0  0  0  0  0  0  0
  2  1  1  6
  2  3  1  0
  3  4  1  0
  4  5  1  0
  5  6  1  0
  6  7  1  0
  6  8  1  0
  6  9  1  0
  2 10  1  0
 10 11  1  6
 11 12  1  0
 13 12  1  6
 13 14  1  0
 14 15  2  0
 15 16  1  0
 16 17  2  0
 17 18  1  0
 18 19  1  0
 19 20  1  1
 19 21  1  0
 21 22  1  0
 22 23  1  6
 22 24  1  0
 24 25  2  0
 14 26  1  0
 26 27  1  0
 27 28  1  0
 28 29  1  0
 29 30  1  6
 29 10  1  0
 29 13  1  0
 24 17  1  0
M  END
$$$$
444750
     RDKit          2D

 14 14  0  0  0  0  0  0  0  0999 V2000
    5.0260    1.2990    0.0000 C   0  0  0  0  0  0  0  0  0  0  0  0
    3.5260    1.2990    0.0000 C   0  0  0  0  0  0  0  0  0  0  0  0
    2.7760    2.5981    0.0000 C   0  0  0  0  0  0  0  0  0  0  0  0
    3.5260    3.8971    0.0000 S   0  0  0  0  0  0  0  0  0  0  0  0
    2.7760    0.0000    0.0000 C   0  0  0  0  0  0  0  0  0  0  0  0
    3.5260   -1.2990    0.0000 O   0  0  0  0  0  0  0  0  0  0  0  0
    1.2760    0.0000    0.0000 N   0  0  0  0  0  0  0  0  0  0  0  0
    0.3943    1.2135    0.0000 C   0  0  0  0  0  0  0  0  0  0  0  0
   -1.0323    0.7500    0.0000 C   0  0  0  0  0  0  0  0  0  0  0  0
   -1.0323   -0.7500    0.0000 C   0  0  0  0  0  0  0  0  0  0  0  0
    0.3943   -1.2135    0.0000 C   0  0  0  0  0  0  0  0  0  0  0  0
    0.8578   -2.6401    0.0000 C   0  0  0  0  0  0  0  0  0  0  0  0
    2.3250   -2.9520    0.0000 O   0  0  0  0  0  0  0  0  0  0  0  0
   -0.1459   -3.7548    0.0000 O   0  0  0  0  0  0  0  0  0  0  0  0
  2  1  1  1
  2  3  1  0
  3  4  1  0
  2  5  1  0
  5  6  2  0
  5  7  1  0
  7  8  1  0
  8  9  1  0
  9 10  1  0
 10 11  1  0
 11 12  1  6
 12 13  2  0
 12 14  1  0
 11  7  1  0
M  END
$$$$
23199
     RDKit          2D

 10 10  0  0  0  0  0  0  0  0999 V2000
    5.2500   -1.2990    0.0000 C   0  0  0  0  0  0  0  0  0  0  0  0
    3.7500   -1.2990    0.0000 C   0  0  0  0  0  0  0  0  0  0  0  0
    3.0000   -2.5981    0.0000 N   0  0  0  0  0  0  0  0  0  0  0  0
    3.0000    0.0000    0.0000 C   0  0  0  0  0  0  0  0  0  0  0  0
    1.5000    0.0000    0.0000 C   0  0  0  0  0  0  0  0  0  0  0  0
    0.7500   -1.2990    0.0000 C   0  0  0  0  0  0  0  0  0  0  0  0
   -0.7500   -1.2990    0.0000 C   0  0  0  0  0  0  0  0  0  0  0  0
   -1.5000    0.0000    0.0000 C   0  0  0  0  0  0  0  0  0  0  0  0
   -0.7500    1.2990    0.0000 C   0  0  0  0  0  0  0  0  0  0  0  0
    0.7500    1.2990    0.0000 C   0  0  0  0  0  0  0  0  0  0  0  0
  2  1  1  6
  2  3  1  0
  2  4  1  0
  4  5  1  0
  5  6  2  0
  6  7  1  0
  7  8  2  0
  8  9  1  0
  9 10  2  0
 10  5  1  0
M  END
$$$$
1926820
     RDKit          2D

 25 24  0  0  0  0  0  0  0  0999 V2000
    5.2500   -1.2990    0.0000 C   0  0  0  0  0  0  0  0  0  0  0  0
    3.7500   -1.2990    0.0000 C   0  0  0  0  0  0  0  0  0  0  0  0
    3.0000   -2.5981    0.0000 N   0  0  0  0  0  0  0  0  0  0  0  0
    3.0000    0.0000    0.0000 C   0  0  0  0  0  0  0  0  0  0  0  0
    1.5000    0.0000    0.0000 C   0  0  0  0  0  0  0  0  0  0  0  0
    0.7500   -1.2990    0.0000 C   0  0  0  0  0  0  0  0  0  0  0  0
   -0.7500   -1.2990    0.0000 C   0  0  0  0  0  0  0  0  0  0  0  0
   -1.5000    0.0000    0.0000 C   0  0  0  0  0  0  0  0  0  0  0  0
   -0.7500    1.2990    0.0000 C   0  0  0  0  0  0  0  0  0  0  0  0
    0.7500    1.2990    0.0000 C   0  0  0  0  0  0  0  0  0  0  0  0
    5.2500    3.5981    0.0000 C   0  0  0  0  0  0  0  0  0  0  0  0
    3.7500    3.5981    0.0000 C   0  0  0  0  0  0  0  0  0  0  0  0
    3.0000    2.2990    0.0000 N   0  0  0  0  0  0  0  0  0  0  0  0
    3.0000    4.8971    0.0000 C   0  0  0  0  0  0  0  0  0  0  0  0
    1.5000    4.8971    0.0000 C   0  0  0  0  0  0  0  0  0  0  0  0
    0.7500    3.5981    0.0000 C   0  0  0  0  0  0  0  0  0  0  0  0
   -0.7500    3.5981    0.0000 C   0  0  0  0  0  0  0  0  0  0  0  0
   -1.5000    4.8971    0.0000 C   0  0  0  0  0  0  0  0  0  0  0  0
   -0.7500    6.1962    0.0000 C   0  0  0  0  0  0  0  0  0  0  0  0
    0.7500    6.1962    0.0000 C   0  0  0  0  0  0  0  0  0  0  0  0
    6.2500    0.0000    0.0000 O   0  0  0  0  0  0  0  0  0  0  0  0
    7.5490    0.7500    0.0000 S   0  0  0  0  0  0  0  0  0  0  0  0
    8.2990   -0.5490    0.0000 O   0  0  0  0  0  0  0  0  0  0  0  0
    6.7990    2.0490    0.0000 O   0  0  0  0  0  0  0  0  0  0  0  0
    8.8481    1.5000    0.0000 O   0  0  0  0  0  0  0  0  0  0  0  0
  2  1  1  6
  2  3  1  0
  2  4  1  0
  4  5  1  0
  5  6  2  0
  6  7  1  0
  7  8  2  0
  8  9  1  0
  9 10  2  0
 12 11  1  6
 12 13  1  0
 12 14  1  0
 14 15  1  0
 15 16  2  0
 16 17  1  0
 17 18  2  0
 18 19  1  0
 19 20  2  0
 21 22  1  0
 22 23  2  0
 22 24  2  0
 22 25  1  0
 10  5  1  0
 20 15  1  0
M  END
$$$$
674733
     RDKit          2D

 20 19  0  0  0  0  0  0  0  0999 V2000
    5.2500   -1.2990    0.0000 C   0  0  0  0  0  0  0  0  0  0  0  0
    3.7500   -1.2990    0.0000 C   0  0  0  0  0  0  0  0  0  0  0  0
    3.0000   -2.5981    0.0000 N   0  0  0  0  0  0  0  0  0  0  0  0
    3.0000    0.0000    0.0000 C   0  0  0  0  0  0  0  0  0  0  0  0
    1.5000    0.0000    0.0000 C   0  0  0  0  0  0  0  0  0  0  0  0
    0.7500   -1.2990    0.0000 C   0  0  0  0  0  0  0  0  0  0  0  0
   -0.7500   -1.2990    0.0000 C   0  0  0  0  0  0  0  0  0  0  0  0
   -1.5000    0.0000    0.0000 C   0  0  0  0  0  0  0  0  0  0  0  0
   -0.7500    1.2990    0.0000 C   0  0  0  0  0  0  0  0  0  0  0  0
    0.7500    1.2990    0.0000 C   0  0  0  0  0  0  0  0  0  0  0  0
   -2.5981    3.7990    0.0000 O   0  0  0  0  0  0  0  0  0  0  0  0
   -1.2990    4.5490    0.0000 C   0  0  0  0  0  0  0  0  0  0  0  0
   -1.2990    6.0490    0.0000 O   0  0  0  0  0  0  0  0  0  0  0  0
    0.0000    3.7990    0.0000 C   0  0  0  0  0  0  0  0  0  0  0  0
    1.2990    4.5490    0.0000 C   0  0  0  0  0  0  0  0  0  0  0  0
    2.5981    3.7990    0.0000 C   0  0  0  0  0  0  0  0  0  0  0  0
    3.8971    4.5490    0.0000 C   0  0  0  0  0  0  0  0  0  0  0  0
    5.1962    3.7990    0.0000 C   0  0  0  0  0  0  0  0  0  0  0  0
    5.1962    2.2990    0.0000 O   0  0  0  0  0  0  0  0  0  0  0  0
    6.4952    4.5490    0.0000 O   0  0  0  0  0  0  0  0  0  0  0  0
  2  1  1  6
  2  3  1  0
  2  4  1  0
  4  5  1  0
  5  6  2  0
  6  7  1  0
  7  8  2  0
  8  9  1  0
  9 10  2  0
 11 12  1  0
 12 13  2  0
 12 14  1  0
 14 15  1  0
 15 16  1  0
 16 17  1  0
 17 18  1  0
 18 19  2  0
 18 20  1  0
 10  5  1  0
M  END
$$$$
674943
     RDKit          2D

 24 23  0  0  0  0  0  0  0  0999 V2000
    5.2500   -1.2990    0.0000 C   0  0  0  0  0  0  0  0  0  0  0  0
    3.7500   -1.2990    0.0000 C   0  0  0  0  0  0  0  0  0  0  0  0
    3.0000   -2.5981    0.0000 N   0  0  0  0  0  0  0  0  0  0  0  0
    3.0000    0.0000    0.0000 C   0  0  0  0  0  0  0  0  0  0  0  0
    1.5000    0.0000    0.0000 C   0  0  0  0  0  0  0  0  0  0  0  0
    0.7500   -1.2990    0.0000 C   0  0  0  0  0  0  0  0  0  0  0  0
   -0.7500   -1.2990    0.0000 C   0  0  0  0  0  0  0  0  0  0  0  0
   -1.5000    0.0000    0.0000 C   0  0  0  0  0  0  0  0  0  0  0  0
   -0.7500    1.2990    0.0000 C   0  0  0  0  0  0  0  0  0  0  0  0
    0.7500    1.2990    0.0000 C   0  0  0  0  0  0  0  0  0  0  0  0
   -0.0000    2.2990    0.0000 O   0  0  0  0  0  0  0  0  0  0  0  0
    0.0000    3.7990    0.0000 C   0  0  0  0  0  0  0  0  0  0  0  0
    1.2990    4.5490    0.0000 C   0  0  0  0  0  0  0  0  0  0  0  0
    1.2990    6.0490    0.0000 O   0  0  0  0  0  0  0  0  0  0  0  0
    2.5981    3.7990    0.0000 C   0  0  0  0  0  0  0  0  0  0  0  0
    2.5981    2.2990    0.0000 O   0  0  0  0  0  0  0  0  0  0  0  0
    3.8971    4.5490    0.0000 C   0  0  0  0  0  0  0  0  0  0  0  0
    3.8971    6.0490    0.0000 O   0  0  0  0  0  0  0  0  0  0  0  0
    5.1962    3.7990    0.0000 O   0  0  0  0  0  0  0  0  0  0  0  0
   -1.2990    4.5490    0.0000 C   0  0  0  0  0  0  0  0  0  0  0  0
   -1.2990    6.0490    0.0000 O   0  0  0  0  0  0  0  0  0  0  0  0
   -2.5981    3.7990    0.0000 C   0  0  0  0  0  0  0  0  0  0  0  0
   -2.5981    2.2990    0.0000 O   0  0  0  0  0  0  0  0  0  0  0  0
   -3.8971    4.5490    0.0000 O   0  0  0  0  0  0  0  0  0  0  0  0
  2  1  1  6
  2  3  1  0
  2  4  1  0
  4  5  1  0
  5  6  2  0
  6  7  1  0
  7  8  2  0
  8  9  1  0
  9 10  2  0
 11 12  1  0
 12 13  1  0
 13 14  1  0
 13 15  1  0
 15 16  1  0
 15 17  1  0
 17 18  2  0
 17 19  1  0
 12 20  1  0
 20 21  1  0
 20 22  1  0
 22 23  2  0
 22 24  1  0
 10  5  1  0
M  END
$$$$
47138
     RDKit          2D

 21 22  0  0  0  0  0  0  0  0999 V2000
    1.5000   -7.7942    0.0000 C   0  0  0  0  0  0  0  0  0  0  0  0
    0.7500   -6.4952    0.0000 C   0  0  0  0  0  0  0  0  0  0  0  0
    1.5000   -5.1962    0.0000 N   0  0  0  0  0  0  0  0  0  0  0  0
    0.7500   -3.8971    0.0000 C   0  0  0  0  0  0  0  0  0  0  0  0
    1.5000   -2.5981    0.0000 C   0  0  0  0  0  0  0  0  0  0  0  0
    0.7500   -1.2990    0.0000 C   0  0  0  0  0  0  0  0  0  0  0  0
    1.5000    0.0000    0.0000 C   0  0  0  0  0  0  0  0  0  0  0  0
    0.7500    1.2990    0.0000 C   0  0  0  0  0  0  0  0  0  0  0  0
   -0.7500    1.2990    0.0000 C   0  0  0  0  0  0  0  0  0  0  0  0
   -1.5000    2.5981    0.0000 O   0  0  0  0  0  0  0  0  0  0  0  0
   -1.5000    0.0000    0.0000 C   0  0  0  0  0  0  0  0  0  0  0  0
   -0.7500   -1.2990    0.0000 C   0  0  0  0  0  0  0  0  0  0  0  0
   -0.7500   -6.4952    0.0000 C   0  0  0  0  0  0  0  0  0  0  0  0
   -1.5000   -5.1962    0.0000 O   0  0  0  0  0  0  0  0  0  0  0  0
   -1.5000   -7.7942    0.0000 C   0  0  0  0  0  0  0  0  0  0  0  0
   -3.0000   -7.7942    0.0000 C   0  0  0  0  0  0  0  0  0  0  0  0
   -3.7500   -9.0933    0.0000 C   0  0  0  0  0  0  0  0  0  0  0  0
   -3.0000  -10.3923    0.0000 C   0  0  0  0  0  0  0  0  0  0  0  0
   -3.7500  -11.6913    0.0000 O   0  0  0  0  0  0  0  0  0  0  0  0
   -1.5000  -10.3923    0.0000 C   0  0  0  0  0  0  0  0  0  0  0  0
   -0.7500   -9.0933    0.0000 C   0  0  0  0  0  0  0  0  0  0  0  0
  2  1  1  1
  2  3  1  0
  3  4  1  0
  4  5  1  0
  5  6  1  0
  6  7  2  0
  7  8  1  0
  8  9  2  0
  9 10  1  0
  9 11  1  0
 11 12  2  0
  2 13  1  0
 13 14  1  1
 13 15  1  0
 15 16  2  0
 16 17  1  0
 17 18  2  0
 18 19  1  0
 18 20  1  0
 20 21  2  0
 12  6  1  0
 21 15  1  0
M  END
$$$$
1369652
     RDKit          2D

 32 33  0  0  0  0  0  0  0  0999 V2000
    7.3882    0.0000    0.0000 C   0  0  0  0  0  0  0  0  0  0  0  0
    8.6872    0.7500    0.0000 C   0  0  0  0  0  0  0  0  0  0  0  0
    8.6872    2.2500    0.0000 O   0  0  0  0  0  0  0  0  0  0  0  0
    9.9862   -0.0000    0.0000 C   0  0  0  0  0  0  0  0  0  0  0  0
    9.9862   -1.5000    0.0000 O   0  0  0  0  0  0  0  0  0  0  0  0
   11.2853    0.7500    0.0000 O   0  0  0  0  0  0  0  0  0  0  0  0
    0.4895   -2.7762    0.0000 O   0  0  0  0  0  0  0  0  0  0  0  0
    0.7500   -1.2990    0.0000 C   0  0  0  0  0  0  0  0  0  0  0  0
    1.5000    0.0000    0.0000 C   0  0  0  0  0  0  0  0  0  0  0  0
    0.7500    1.2990    0.0000 C   0  0  0  0  0  0  0  0  0  0  0  0
   -0.7500    1.2990    0.0000 N   0  0  0  0  0  0  0  0  0  0  0  0
   -1.5000    2.5981    0.0000 C   0  0  0  0  0  0  0  0  0  0  0  0
   -0.7500    3.8971    0.0000 C   0  0  0  0  0  0  0  0  0  0  0  0
   -1.5000    5.1962    0.0000 C   0  0  0  0  0  0  0  0  0  0  0  0
   -0.7500    6.4952    0.0000 C   0  0  0  0  0  0  0  0  0  0  0  0
    0.7500    6.4952    0.0000 O   0  0  0  0  0  0  0  0  0  0  0  0
   -1.5000    7.7942    0.0000 C   0  0  0  0  0  0  0  0  0  0  0  0
   -0.7500    9.0933    0.0000 C   0  0  0  0  0  0  0  0  0  0  0  0
   -1.5000   10.3923    0.0000 C   0  0  0  0  0  0  0  0  0  0  0  0
   -3.0000   10.3923    0.0000 C   0  0  0  0  0  0  0  0  0  0  0  0
   -3.7500   11.6913    0.0000 F   0  0  0  0  0  0  0  0  0  0  0  0
   -3.7500    9.0933    0.0000 C   0  0  0  0  0  0  0  0  0  0  0  0
   -3.0000    7.7942    0.0000 C   0  0  0  0  0  0  0  0  0  0  0  0
   -1.5000    0.0000    0.0000 C   0  0  0  0  0  0  0  0  0  0  0  0
   -0.7500   -1.2990    0.0000 C   0  0  0  0  0  0  0  0  0  0  0  0
    2.1595   -1.8121    0.0000 C   0  0  0  0  0  0  0  0  0  0  0  0
    2.4200   -3.2893    0.0000 C   0  0  0  0  0  0  0  0  0  0  0  0
    3.8296   -3.8023    0.0000 C   0  0  0  0  0  0  0  0  0  0  0  0
    4.9786   -2.8381    0.0000 C   0  0  0  0  0  0  0  0  0  0  0  0
    6.3882   -3.3512    0.0000 Cl  0  0  0  0  0  0  0  0  0  0  0  0
    4.7181   -1.3609    0.0000 C   0  0  0  0  0  0  0  0  0  0  0  0
    3.3086   -0.8479    0.0000 C   0  0  0  0  0  0  0  0  0  0  0  0
  2  1  1  6
  2  3  1  0
  2  4  1  0
  4  5  2  0
  4  6  1  0
  7  8  1  0
  8  9  1  0
  9 10  1  0
 10 11  1  0
 11 12  1  0
 12 13  1  0
 13 14  1  0
 14 15  1  0
 15 16  2  0
 15 17  1  0
 17 18  2  0
 18 19  1  0
 19 20  2  0
 20 21  1  0
 20 22  1  0
 22 23  2  0
 11 24  1  0
 24 25  1  0
  8 26  1  0
 26 27  2  0
 27 28  1  0
 28 29  2  0
 29 30  1  0
 29 31  1  0
 31 32  2  0
 25  8  1  0
 23 17  1  0
 32 26  1  0
M  END
$$$$
675725
     RDKit          2D

 17 18  0  0  0  0  0  0  0  0999 V2000
    5.2500   -1.2990    0.0000 C   0  0  0  0  0  0  0  0  0  0  0  0
    3.7500   -1.2990    0.0000 C   0  0  0  0  0  0  0  0  0  0  0  0
    3.0000   -2.5981    0.0000 O   0  0  0  0  0  0  0  0  0  0  0  0
    3.0000    0.0000    0.0000 C   0  0  0  0  0  0  0  0  0  0  0  0
    3.7500    1.2990    0.0000 O   0  0  0  0  0  0  0  0  0  0  0  0
    1.5000    0.0000    0.0000 C   0  0  0  0  0  0  0  0  0  0  0  0
    0.7500   -1.2990    0.0000 C   0  0  0  0  0  0  0  0  0  0  0  0
   -0.7500   -1.2990    0.0000 N   0  0  0  0  0  0  0  0  0  0  0  0
   -1.5000    0.0000    0.0000 C   0  0  0  0  0  0  0  0  0  0  0  0
   -3.0000    0.0000    0.0000 N   0  0  0  0  0  0  0  0  0  0  0  0
   -3.7500    1.2990    0.0000 C   0  0  0  0  0  0  0  0  0  0  0  0
   -5.2500    1.2990    0.0000 N   0  0  0  0  0  0  0  0  0  0  0  0
   -3.0000    2.5981    0.0000 N   0  0  0  0  0  0  0  0  0  0  0  0
   -1.5000    2.5981    0.0000 C   0  0  0  0  0  0  0  0  0  0  0  0
   -0.7500    3.8971    0.0000 O   0  0  0  0  0  0  0  0  0  0  0  0
   -0.7500    1.2990    0.0000 C   0  0  0  0  0  0  0  0  0  0  0  0
    0.7500    1.2990    0.0000 N   0  0  0  0  0  0  0  0  0  0  0  0
  2  1  1  6
  2  3  1  0
  2  4  1  0
  4  5  1  1
  4  6  1  0
  6  7  1  1
  7  8  1  0
  8  9  1  0
  9 10  2  0
 10 11  1  0
 11 12  1  0
 11 13  2  0
 13 14  1  0
 14 15  1  0
 14 16  2  0
 16 17  1  0
 17  6  1  0
 16  9  1  0
M  END
$$$$
674573
     RDKit          2D

 30 32  0  0  0  0  0  0  0  0999 V2000
   -5.5085    0.2283    0.0000 C   0  0  0  0  0  0  0  0  0  0  0  0
   -4.0819    0.6918    0.0000 C   0  0  0  0  0  0  0  0  0  0  0  0
   -3.7701    2.1590    0.0000 C   0  0  0  0  0  0  0  0  0  0  0  0
   -4.8848    3.1627    0.0000 C   0  0  0  0  0  0  0  0  0  0  0  0
   -4.5729    4.6300    0.0000 C   0  0  0  0  0  0  0  0  0  0  0  0
   -5.6876    5.6337    0.0000 C   0  0  0  0  0  0  0  0  0  0  0  0
   -3.1463    5.0935    0.0000 C   0  0  0  0  0  0  0  0  0  0  0  0
   -2.6828    3.6669    0.0000 C   0  0  0  0  0  0  0  0  0  0  0  0
   -3.6099    6.5201    0.0000 C   0  0  0  0  0  0  0  0  0  0  0  0
   -1.7198    5.5570    0.0000 O   0  0  0  0  0  0  0  0  0  0  0  0
   -2.9672   -0.3119    0.0000 C   0  0  0  0  0  0  0  0  0  0  0  0
   -3.1240   -1.8037    0.0000 C   0  0  0  0  0  0  0  0  0  0  0  0
   -1.7537   -2.4138    0.0000 C   0  0  0  0  0  0  0  0  0  0  0  0
   -0.7500   -1.2990    0.0000 C   0  0  0  0  0  0  0  0  0  0  0  0
    0.7500   -1.2990    0.0000 C   0  0  0  0  0  0  0  0  0  0  0  0
    1.5000   -2.5981    0.0000 C   0  0  0  0  0  0  0  0  0  0  0  0
    3.0000   -2.5981    0.0000 C   0  0  0  0  0  0  0  0  0  0  0  0
    3.7500   -3.8971    0.0000 C   0  0  0  0  0  0  0  0  0  0  0  0
    3.0000   -5.1962    0.0000 C   0  0  0  0  0  0  0  0  0  0  0  0
    3.7500   -6.4952    0.0000 C   0  0  0  0  0  0  0  0  0  0  0  0
    3.0000   -7.7942    0.0000 O   0  0  0  0  0  0  0  0  0  0  0  0
    5.2500   -6.4952    0.0000 C   0  0  0  0  0  0  0  0  0  0  0  0
    6.0000   -5.1962    0.0000 C   0  0  0  0  0  0  0  0  0  0  0  0
    7.5000   -5.1962    0.0000 O   0  0  0  0  0  0  0  0  0  0  0  0
    5.2500   -3.8971    0.0000 C   0  0  0  0  0  0  0  0  0  0  0  0
    1.5000    0.0000    0.0000 C   0  0  0  0  0  0  0  0  0  0  0  0
    0.7500    1.2990    0.0000 C   0  0  0  0  0  0  0  0  0  0  0  0
   -0.7500    1.2990    0.0000 C   0  0  0  0  0  0  0  0  0  0  0  0
   -1.5000    0.0000    0.0000 C   0  0  0  0  0  0  0  0  0  0  0  0
   -2.3817    1.2135    0.0000 C   0  0  0  0  0  0  0  0  0  0  0  0
  2  1  1  6
  2  3  1  0
  3  4  2  0
  4  5  1  0
  5  6  1  6
  5  7  1  0
  7  8  1  0
  7  9  1  0
  7 10  1  0
  2 11  1  0
 11 12  1  6
 12 13  1  0
 14 13  1  6
 14 15  1  0
 15 16  2  0
 16 17  1  0
 17 18  2  0
 18 19  1  0
 19 20  1  0
 20 21  1  6
 20 22  1  0
 22 23  1  0
 23 24  1  1
 23 25  1  0
 15 26  1  0
 26 27  1  0
 27 28  1  0
 28 29  1  0
 29 30  1  6
 29 11  1  0
 29 14  1  0
 25 18  1  0
M  END
$$$$
435293
     RDKit          2D

 31 33  0  0  0  0  0  0  0  0999 V2000
    3.0000    0.0000    0.0000 C   0  0  0  0  0  0  0  0  0  0  0  0
    1.5000    0.0000    0.0000 C   0  0  0  0  0  0  0  0  0  0  0  0
    0.7500   -1.2990    0.0000 C   0  0  0  0  0  0  0  0  0  0  0  0
   -0.7500   -1.2990    0.0000 N   0  0  0  0  0  0  0  0  0  0  0  0
   -1.5000   -2.5981    0.0000 C   0  0  0  0  0  0  0  0  0  0  0  0
   -3.0000   -2.5981    0.0000 C   0  0  0  0  0  0  0  0  0  0  0  0
   -3.7500   -3.8971    0.0000 C   0  0  0  0  0  0  0  0  0  0  0  0
   -5.2500   -3.8971    0.0000 C   0  0  0  0  0  0  0  0  0  0  0  0
   -6.0000   -2.5981    0.0000 C   0  0  0  0  0  0  0  0  0  0  0  0
   -7.5000   -2.5981    0.0000 C   0  0  0  0  0  0  0  0  0  0  0  0
   -8.2500   -3.8971    0.0000 C   0  0  0  0  0  0  0  0  0  0  0  0
   -7.5000   -5.1962    0.0000 C   0  0  0  0  0  0  0  0  0  0  0  0
   -6.0000   -5.1962    0.0000 C   0  0  0  0  0  0  0  0  0  0  0  0
   -3.7500   -1.2990    0.0000 C   0  0  0  0  0  0  0  0  0  0  0  0
   -3.0000    0.0000    0.0000 O   0  0  0  0  0  0  0  0  0  0  0  0
   -5.2500   -1.2990    0.0000 N   0  0  0  0  0  0  0  0  0  0  0  0
   -6.0000    0.0000    0.0000 C   0  0  0  0  0  0  0  0  0  0  0  0
   -7.5000    0.0000    0.0000 C   0  0  0  0  0  0  0  0  0  0  0  0
   -8.2500   -1.2990    0.0000 O   0  0  0  0  0  0  0  0  0  0  0  0
   -8.2500    1.2990    0.0000 O   0  0  0  0  0  0  0  0  0  0  0  0
   -1.5000    0.0000    0.0000 C   0  0  0  0  0  0  0  0  0  0  0  0
   -0.7500    1.2990    0.0000 C   0  0  0  0  0  0  0  0  0  0  0  0
    0.7500    1.2990    0.0000 C   0  0  0  0  0  0  0  0  0  0  0  0
    0.4895    2.7762    0.0000 C   0  0  0  0  0  0  0  0  0  0  0  0
    2.1595    1.8121    0.0000 C   0  0  0  0  0  0  0  0  0  0  0  0
    3.3086    0.8479    0.0000 C   0  0  0  0  0  0  0  0  0  0  0  0
    4.7181    1.3609    0.0000 C   0  0  0  0  0  0  0  0  0  0  0  0
    4.9786    2.8381    0.0000 C   0  0  0  0  0  0  0  0  0  0  0  0
    3.8296    3.8023    0.0000 C   0  0  0  0  0  0  0  0  0  0  0  0
    4.0900    5.2795    0.0000 O   0  0  0  0  0  0  0  0  0  0  0  0
    2.4200    3.2893    0.0000 C   0  0  0  0  0  0  0  0  0  0  0  0
  2  1  1  1
  2  3  1  0
  3  4  1  0
  4  5  1  0
  6  5  1  6
  6  7  1  0
  7  8  1  0
  8  9  2  0
  9 10  1  0
 10 11  2  0
 11 12  1  0
 12 13  2  0
  6 14  1  0
 14 15  2  0
 14 16  1  0
 16 17  1  0
 17 18  1  0
 18 19  2  0
 18 20  1  0
  4 21  1  0
 21 22  1  0
 22 23  1  0
 23 24  1  6
 23 25  1  0
 25 26  2  0
 26 27  1  0
 27 28  2  0
 28 29  1  0
 29 30  1  0
 29 31  2  0
 23  2  1  0
 13  8  1  0
 31 25  1  0
M  END
$$$$
301194
     RDKit          2D

 13 14  0  0  0  0  0  0  0  0999 V2000
    3.2286   -0.0000    0.0000 C   0  0  0  0  0  0  0  0  0  0  0  0
    1.7286    0.0000    0.0000 C   0  0  0  0  0  0  0  0  0  0  0  0
    1.0777    1.3515    0.0000 C   0  0  0  0  0  0  0  0  0  0  0  0
   -0.3846    1.6852    0.0000 N   0  0  0  0  0  0  0  0  0  0  0  0
   -1.5574    0.7500    0.0000 C   0  0  0  0  0  0  0  0  0  0  0  0
   -1.5574   -0.7500    0.0000 C   0  0  0  0  0  0  0  0  0  0  0  0
   -0.3846   -1.6852    0.0000 C   0  0  0  0  0  0  0  0  0  0  0  0
   -0.8268   -3.1186    0.0000 C   0  0  0  0  0  0  0  0  0  0  0  0
    0.1935   -4.2182    0.0000 C   0  0  0  0  0  0  0  0  0  0  0  0
    1.6559   -3.8844    0.0000 C   0  0  0  0  0  0  0  0  0  0  0  0
    2.6761   -4.9840    0.0000 Cl  0  0  0  0  0  0  0  0  0  0  0  0
    2.0980   -2.4510    0.0000 C   0  0  0  0  0  0  0  0  0  0  0  0
    1.0777   -1.3515    0.0000 C   0  0  0  0  0  0  0  0  0  0  0  0
  2  1  1  6
  2  3  1  0
  3  4  1  0
  4  5  1  0
  5  6  1  0
  6  7  1  0
  7  8  2  0
  8  9  1  0
  9 10  2  0
 10 11  1  0
 10 12  1  0
 12 13  2  0
 13  2  1  0
 13  7  1  0
M  END
$$$$
1795
     RDKit          2D

 26 29  0  0  0  0  0  0  0  0999 V2000
    3.0000    0.0000    0.0000 C   0  0  0  0  0  0  0  0  0  0  0  0
    1.5000    0.0000    0.0000 C   0  0  0  0  0  0  0  0  0  0  0  0
    0.7500   -1.2990    0.0000 C   0  0  0  0  0  0  0  0  0  0  0  0
   -0.7500   -1.2990    0.0000 O   0  0  0  0  0  0  0  0  0  0  0  0
   -1.5000    0.0000    0.0000 C   0  0  0  0  0  0  0  0  0  0  0  0
   -3.0000    0.0000    0.0000 C   0  0  0  0  0  0  0  0  0  0  0  0
   -3.7500   -1.2990    0.0000 N   0  0  0  0  0  0  0  0  0  0  0  0
   -5.2500   -1.2990    0.0000 C   0  0  0  0  0  0  0  0  0  0  0  0
   -6.0000   -2.5981    0.0000 C   0  0  0  0  0  0  0  0  0  0  0  0
   -5.2500   -3.8971    0.0000 N   0  0  0  0  0  0  0  0  0  0  0  0
   -6.0000   -5.1962    0.0000 C   0  0  0  0  0  0  0  0  0  0  0  0
   -3.7500   -3.8971    0.0000 C   0  0  0  0  0  0  0  0  0  0  0  0
   -3.0000   -2.5981    0.0000 C   0  0  0  0  0  0  0  0  0  0  0  0
   -3.7500    1.2990    0.0000 C   0  0  0  0  0  0  0  0  0  0  0  0
   -5.2500    1.2990    0.0000 F   0  0  0  0  0  0  0  0  0  0  0  0
   -3.0000    2.5981    0.0000 C   0  0  0  0  0  0  0  0  0  0  0  0
   -1.5000    2.5981    0.0000 C   0  0  0  0  0  0  0  0  0  0  0  0
   -0.7500    3.8971    0.0000 C   0  0  0  0  0  0  0  0  0  0  0  0
   -1.5000    5.1962    0.0000 O   0  0  0  0  0  0  0  0  0  0  0  0
    0.7500    3.8971    0.0000 C   0  0  0  0  0  0  0  0  0  0  0  0
    1.5000    2.5981    0.0000 C   0  0  0  0  0  0  0  0  0  0  0  0
    0.7500    1.2990    0.0000 N   0  0  0  0  0  0  0  0  0  0  0  0
   -0.7500    1.2990    0.0000 C   0  0  0  0  0  0  0  0  0  0  0  0
    1.5000    5.1962    0.0000 C   0  0  0  0  0  0  0  0  0  0  0  0
    0.7500    6.4952    0.0000 O   0  0  0  0  0  0  0  0  0  0  0  0
    3.0000    5.1962    0.0000 O   0  0  0  0  0  0  0  0  0  0  0  0
  2  1  1  1
  2  3  1  0
  3  4  1  0
  4  5  1  0
  5  6  1  0
  6  7  1  0
  7  8  1  0
  8  9  1  0
  9 10  1  0
 10 11  1  0
 10 12  1  0
 12 13  1  0
  6 14  2  0
 14 15  1  0
 14 16  1  0
 16 17  2  0
 17 18  1  0
 18 19  2  0
 18 20  1  0
 20 21  2  0
 21 22  1  0
 22 23  1  0
 20 24  1  0
 24 25  2  0
 24 26  1  0
 22  2  1  0
 23  5  2  0
 13  7  1  0
 23 17  1  0
M  END
$$$$
34608
     RDKit          2D

 28 31  0  0  0  0  0  0  0  0999 V2000
   -3.0000   -2.5981    0.0000 C   0  0  0  0  0  0  0  0  0  0  0  0
   -1.5000   -2.5981    0.0000 C   0  0  0  0  0  0  0  0  0  0  0  0
   -0.7500   -3.8971    0.0000 C   0  0  0  0  0  0  0  0  0  0  0  0
    0.7500   -3.8971    0.0000 C   0  0  0  0  0  0  0  0  0  0  0  0
    1.5000   -2.5981    0.0000 C   0  0  0  0  0  0  0  0  0  0  0  0
    3.0000   -2.5981    0.0000 C   0  0  0  0  0  0  0  0  0  0  0  0
    3.7500   -3.8971    0.0000 C   0  0  0  0  0  0  0  0  0  0  0  0
    3.0000   -5.1962    0.0000 C   0  0  0  0  0  0  0  0  0  0  0  0
    4.4854   -4.9873    0.0000 C   0  0  0  0  0  0  0  0  0  0  0  0
    1.5000   -5.1962    0.0000 C   0  0  0  0  0  0  0  0  0  0  0  0
    1.0365   -6.6227    0.0000 C   0  0  0  0  0  0  0  0  0  0  0  0
    2.2500   -7.5044    0.0000 C   0  0  0  0  0  0  0  0  0  0  0  0
    3.4635   -6.6227    0.0000 C   0  0  0  0  0  0  0  0  0  0  0  0
    4.8338   -6.0126    0.0000 O   0  0  0  0  0  0  0  0  0  0  0  0
    6.0474   -6.8943    0.0000 C   0  0  0  0  0  0  0  0  0  0  0  0
    6.0629   -7.7799    0.0000 O   0  0  0  0  0  0  0  0  0  0  0  0
    7.4177   -6.2842    0.0000 C   0  0  0  0  0  0  0  0  0  0  0  0
    4.2135   -7.9218    0.0000 C   0  0  0  0  0  0  0  0  0  0  0  0
    5.0927   -8.0297    0.0000 O   0  0  0  0  0  0  0  0  0  0  0  0
    3.4635   -9.2208    0.0000 C   0  0  0  0  0  0  0  0  0  0  0  0
    0.7500   -1.2990    0.0000 C   0  0  0  0  0  0  0  0  0  0  0  0
    2.2500   -1.2990    0.0000 C   0  0  0  0  0  0  0  0  0  0  0  0
    1.5000    0.0000    0.0000 C   0  0  0  0  0  0  0  0  0  0  0  0
    0.7500    1.2990    0.0000 C   0  0  0  0  0  0  0  0  0  0  0  0
   -0.7500    1.2990    0.0000 C   0  0  0  0  0  0  0  0  0  0  0  0
   -1.5000    2.5981    0.0000 O   0  0  0  0  0  0  0  0  0  0  0  0
   -1.5000    0.0000    0.0000 C   0  0  0  0  0  0  0  0  0  0  0  0
   -0.7500   -1.2990    0.0000 C   0  0  0  0  0  0  0  0  0  0  0  0
  2  1  1  6
  2  3  1  0
  4  3  1  6
  4  5  1  0
  5  6  1  1
  6  7  1  0
  7  8  1  0
  8  9  1  1
  8 10  1  0
 10 11  1  1
 11 12  1  0
 12 13  1  0
 13 14  1  6
 14 15  1  0
 15 16  2  0
 15 17  1  0
 13 18  1  0
 18 19  2  0
 18 20  1  0
  5 21  1  0
 21 22  1  1
 21 23  1  0
 23 24  1  0
 24 25  1  0
 25 26  2  0
 25 27  1  0
 27 28  2  0
 28  2  1  0
 10  4  1  0
 13  8  1  0
 28 21  1  0
M  END
$$$$
27152
     RDKit          2D

 28 31  0  0  0  0  0  0  0  0999 V2000
   -2.2500   -9.0044    0.0000 C   0  0  0  0  0  0  0  0  0  0  0  0
   -2.2500   -7.5044    0.0000 C   0  0  0  0  0  0  0  0  0  0  0  0
   -1.0365   -6.6227    0.0000 C   0  0  0  0  0  0  0  0  0  0  0  0
   -1.5000   -5.1962    0.0000 C   0  0  0  0  0  0  0  0  0  0  0  0
   -0.7500   -3.8971    0.0000 C   0  0  0  0  0  0  0  0  0  0  0  0
    0.7500   -3.8971    0.0000 C   0  0  0  0  0  0  0  0  0  0  0  0
    1.5000   -2.5981    0.0000 C   0  0  0  0  0  0  0  0  0  0  0  0
    0.7500   -1.2990    0.0000 C   0  0  0  0  0  0  0  0  0  0  0  0
    1.5000    0.0000    0.0000 C   0  0  0  0  0  0  0  0  0  0  0  0
    0.7500    1.2990    0.0000 C   0  0  0  0  0  0  0  0  0  0  0  0
    1.5000    2.5981    0.0000 O   0  0  0  0  0  0  0  0  0  0  0  0
   -0.7500    1.2990    0.0000 C   0  0  0  0  0  0  0  0  0  0  0  0
   -1.5000    0.0000    0.0000 C   0  0  0  0  0  0  0  0  0  0  0  0
   -0.7500   -1.2990    0.0000 C   0  0  0  0  0  0  0  0  0  0  0  0
   -2.2500   -1.2990    0.0000 C   0  0  0  0  0  0  0  0  0  0  0  0
   -1.5000   -2.5981    0.0000 C   0  0  0  0  0  0  0  0  0  0  0  0
   -2.2500   -3.8971    0.0000 F   0  0  0  0  0  0  0  0  0  0  0  0
   -3.0000   -2.5981    0.0000 C   0  0  0  0  0  0  0  0  0  0  0  0
   -3.7500   -1.2990    0.0000 O   0  0  0  0  0  0  0  0  0  0  0  0
   -3.7500   -3.8971    0.0000 C   0  0  0  0  0  0  0  0  0  0  0  0
   -3.0000   -5.1962    0.0000 C   0  0  0  0  0  0  0  0  0  0  0  0
   -4.4998   -5.1699    0.0000 C   0  0  0  0  0  0  0  0  0  0  0  0
   -3.4635   -6.6227    0.0000 C   0  0  0  0  0  0  0  0  0  0  0  0
   -4.8980   -6.1842    0.0000 O   0  0  0  0  0  0  0  0  0  0  0  0
   -4.2135   -7.9218    0.0000 C   0  0  0  0  0  0  0  0  0  0  0  0
   -3.4635   -9.2208    0.0000 O   0  0  0  0  0  0  0  0  0  0  0  0
   -5.7135   -7.9218    0.0000 C   0  0  0  0  0  0  0  0  0  0  0  0
   -6.4635   -9.2208    0.0000 O   0  0  0  0  0  0  0  0  0  0  0  0
  2  1  1  6
  2  3  1  0
  4  3  1  6
  4  5  1  0
  5  6  1  1
  6  7  1  0
  7  8  1  0
  8  9  2  0
  9 10  1  0
 10 11  2  0
 10 12  1  0
 12 13  2  0
 13 14  1  0
 14 15  1  6
 14 16  1  0
 16 17  1  1
 16 18  1  0
 18 19  1  6
 18 20  1  0
 20 21  1  0
 21 22  1  6
 21 23  1  0
 23 24  1  1
 23 25  1  0
 25 26  2  0
 25 27  1  0
 27 28  1  0
 23  2  1  0
 21  4  1  0
 16  5  1  0
 14  8  1  0
M  END
$$$$
675099
     RDKit          2D

 27 30  0  0  0  0  0  0  0  0999 V2000
   -2.2500   -9.0044    0.0000 C   0  0  0  0  0  0  0  0  0  0  0  0
   -2.2500   -7.5044    0.0000 C   0  0  0  0  0  0  0  0  0  0  0  0
   -1.0365   -6.6227    0.0000 C   0  0  0  0  0  0  0  0  0  0  0  0
   -1.5000   -5.1962    0.0000 C   0  0  0  0  0  0  0  0  0  0  0  0
   -0.7500   -3.8971    0.0000 C   0  0  0  0  0  0  0  0  0  0  0  0
    0.7500   -3.8971    0.0000 C   0  0  0  0  0  0  0  0  0  0  0  0
    1.5000   -2.5981    0.0000 C   0  0  0  0  0  0  0  0  0  0  0  0
    0.7500   -1.2990    0.0000 C   0  0  0  0  0  0  0  0  0  0  0  0
    1.5000    0.0000    0.0000 C   0  0  0  0  0  0  0  0  0  0  0  0
    0.7500    1.2990    0.0000 C   0  0  0  0  0  0  0  0  0  0  0  0
    1.5000    2.5981    0.0000 O   0  0  0  0  0  0  0  0  0  0  0  0
   -0.7500    1.2990    0.0000 C   0  0  0  0  0  0  0  0  0  0  0  0
   -1.5000    0.0000    0.0000 C   0  0  0  0  0  0  0  0  0  0  0  0
   -0.7500   -1.2990    0.0000 C   0  0  0  0  0  0  0  0  0  0  0  0
   -2.2500   -1.2990    0.0000 C   0  0  0  0  0  0  0  0  0  0  0  0
   -1.5000   -2.5981    0.0000 C   0  0  0  0  0  0  0  0  0  0  0  0
   -3.0000   -2.5981    0.0000 C   0  0  0  0  0  0  0  0  0  0  0  0
   -3.7500   -1.2990    0.0000 O   0  0  0  0  0  0  0  0  0  0  0  0
   -3.7500   -3.8971    0.0000 C   0  0  0  0  0  0  0  0  0  0  0  0
   -3.0000   -5.1962    0.0000 C   0  0  0  0  0  0  0  0  0  0  0  0
   -4.4998   -5.1699    0.0000 C   0  0  0  0  0  0  0  0  0  0  0  0
   -3.4635   -6.6227    0.0000 C   0  0  0  0  0  0  0  0  0  0  0  0
   -4.8980   -6.1842    0.0000 O   0  0  0  0  0  0  0  0  0  0  0  0
   -4.2135   -7.9218    0.0000 C   0  0  0  0  0  0  0  0  0  0  0  0
   -3.4635   -9.2208    0.0000 O   0  0  0  0  0  0  0  0  0  0  0  0
   -5.7135   -7.9218    0.0000 C   0  0  0  0  0  0  0  0  0  0  0  0
   -6.4635   -9.2208    0.0000 O   0  0  0  0  0  0  0  0  0  0  0  0
  2  1  1  6
  2  3  1  0
  4  3  1  6
  4  5  1  0
  5  6  1  1
  6  7  1  0
  7  8  1  0
  8  9  2  0
  9 10  1  0
 10 11  2  0
 10 12  1  0
 12 13  2  0
 13 14  1  0
 14 15  1  6
 14 16  1  0
 16 17  1  6
 17 18  2  0
 17 19  1  0
 19 20  1  0
 20 21  1  6
 20 22  1  0
 22 23  1  1
 22 24  1  0
 24 25  2  0
 24 26  1  0
 26 27  1  0
 22  2  1  0
 20  4  1  0
 16  5  1  0
 14  8  1  0
M  END
$$$$
27575
     RDKit          2D

 27 30  0  0  0  0  0  0  0  0999 V2000
   -3.0000   -2.5981    0.0000 C   0  0  0  0  0  0  0  0  0  0  0  0
   -1.5000   -2.5981    0.0000 C   0  0  0  0  0  0  0  0  0  0  0  0
   -0.7500   -3.8971    0.0000 C   0  0  0  0  0  0  0  0  0  0  0  0
    0.7500   -3.8971    0.0000 C   0  0  0  0  0  0  0  0  0  0  0  0
    1.5000   -5.1962    0.0000 C   0  0  0  0  0  0  0  0  0  0  0  0
    1.0365   -6.6227    0.0000 C   0  0  0  0  0  0  0  0  0  0  0  0
    2.2500   -7.5044    0.0000 C   0  0  0  0  0  0  0  0  0  0  0  0
    3.4635   -6.6227    0.0000 C   0  0  0  0  0  0  0  0  0  0  0  0
    4.8980   -6.1842    0.0000 O   0  0  0  0  0  0  0  0  0  0  0  0
    4.2135   -7.9218    0.0000 C   0  0  0  0  0  0  0  0  0  0  0  0
    5.7135   -7.9218    0.0000 O   0  0  0  0  0  0  0  0  0  0  0  0
    3.4635   -9.2208    0.0000 C   0  0  0  0  0  0  0  0  0  0  0  0
    4.2135  -10.5199    0.0000 O   0  0  0  0  0  0  0  0  0  0  0  0
    3.0000   -5.1962    0.0000 C   0  0  0  0  0  0  0  0  0  0  0  0
    4.4998   -5.1699    0.0000 C   0  0  0  0  0  0  0  0  0  0  0  0
    3.7500   -3.8971    0.0000 C   0  0  0  0  0  0  0  0  0  0  0  0
    3.0000   -2.5981    0.0000 C   0  0  0  0  0  0  0  0  0  0  0  0
    3.7500   -1.2990    0.0000 O   0  0  0  0  0  0  0  0  0  0  0  0
    1.5000   -2.5981    0.0000 C   0  0  0  0  0  0  0  0  0  0  0  0
    0.7500   -1.2990    0.0000 C   0  0  0  0  0  0  0  0  0  0  0  0
    2.2500   -1.2990    0.0000 C   0  0  0  0  0  0  0  0  0  0  0  0
    1.5000    0.0000    0.0000 C   0  0  0  0  0  0  0  0  0  0  0  0
    0.7500    1.2990    0.0000 C   0  0  0  0  0  0  0  0  0  0  0  0
   -0.7500    1.2990    0.0000 C   0  0  0  0  0  0  0  0  0  0  0  0
   -1.5000    2.5981    0.0000 O   0  0  0  0  0  0  0  0  0  0  0  0
   -1.5000    0.0000    0.0000 C   0  0  0  0  0  0  0  0  0  0  0  0
   -0.7500   -1.2990    0.0000 C   0  0  0  0  0  0  0  0  0  0  0  0
  2  1  1  6
  2  3  1  0
  4  3  1  6
  4  5  1  0
  5  6  1  1
  6  7  1  0
  7  8  1  0
  8  9  1  6
  8 10  1  0
 10 11  2  0
 10 12  1  0
 12 13  1  0
  8 14  1  0
 14 15  1  1
 14 16  1  0
 16 17  1  0
 17 18  1  1
 19 17  1  1
 19 20  1  0
 20 21  1  1
 20 22  1  0
 22 23  2  0
 23 24  1  0
 24 25  2  0
 24 26  1  0
 26 27  2  0
 27  2  1  0
 19  4  1  0
 14  5  1  0
 27 20  1  0
M  END
$$$$
581814
     RDKit          2D

 55 62  0  0  0  0  0  0  0  0999 V2000
   -7.5000   -2.5981    0.0000 C   0  0  0  0  0  0  0  0  0  0  0  0
   -8.2500   -3.8971    0.0000 C   0  0  0  0  0  0  0  0  0  0  0  0
   -7.5000   -5.1962    0.0000 O   0  0  0  0  0  0  0  0  0  0  0  0
   -8.2500   -6.4952    0.0000 C   0  0  0  0  0  0  0  0  0  0  0  0
   -9.7500   -6.4952    0.0000 C   0  0  0  0  0  0  0  0  0  0  0  0
  -10.5000   -5.1962    0.0000 C   0  0  0  0  0  0  0  0  0  0  0  0
  -12.0000   -5.1962    0.0000 O   0  0  0  0  0  0  0  0  0  0  0  0
   -9.7500   -3.8971    0.0000 C   0  0  0  0  0  0  0  0  0  0  0  0
  -10.5000   -2.5981    0.0000 O   0  0  0  0  0  0  0  0  0  0  0  0
   -7.5000   -7.7942    0.0000 O   0  0  0  0  0  0  0  0  0  0  0  0
   -6.0000   -7.7942    0.0000 C   0  0  0  0  0  0  0  0  0  0  0  0
   -5.2500   -9.0933    0.0000 C   0  0  0  0  0  0  0  0  0  0  0  0
   -6.0000  -10.3923    0.0000 O   0  0  0  0  0  0  0  0  0  0  0  0
   -3.7500   -9.0933    0.0000 C   0  0  0  0  0  0  0  0  0  0  0  0
   -3.0000   -7.7942    0.0000 C   0  0  0  0  0  0  0  0  0  0  0  0
   -1.5000   -7.7942    0.0000 O   0  0  0  0  0  0  0  0  0  0  0  0
   -0.7500   -6.4952    0.0000 C   0  0  0  0  0  0  0  0  0  0  0  0
    0.7500   -6.4952    0.0000 C   0  0  0  0  0  0  0  0  0  0  0  0
    1.5000   -7.7942    0.0000 O   0  0  0  0  0  0  0  0  0  0  0  0
    1.5000   -5.1962    0.0000 C   0  0  0  0  0  0  0  0  0  0  0  0
    0.7500   -3.8971    0.0000 C   0  0  0  0  0  0  0  0  0  0  0  0
    1.5000   -2.5981    0.0000 O   0  0  0  0  0  0  0  0  0  0  0  0
    0.7500   -1.2990    0.0000 C   0  0  0  0  0  0  0  0  0  0  0  0
    1.5000    0.0000    0.0000 C   0  0  0  0  0  0  0  0  0  0  0  0
    0.7500    1.2990    0.0000 C   0  0  0  0  0  0  0  0  0  0  0  0
   -0.7500    1.2990    0.0000 C   0  0  0  0  0  0  0  0  0  0  0  0
    0.0000    2.5981    0.0000 C   0  0  0  0  0  0  0  0  0  0  0  0
   -1.5000    0.0000    0.0000 C   0  0  0  0  0  0  0  0  0  0  0  0
   -3.0000    0.0000    0.0000 C   0  0  0  0  0  0  0  0  0  0  0  0
   -3.7500    1.2990    0.0000 C   0  0  0  0  0  0  0  0  0  0  0  0
   -3.0000    2.5981    0.0000 C   0  0  0  0  0  0  0  0  0  0  0  0
   -1.5000    2.5981    0.0000 C   0  0  0  0  0  0  0  0  0  0  0  0
   -0.7500    3.8971    0.0000 C   0  0  0  0  0  0  0  0  0  0  0  0
   -1.5000    5.1962    0.0000 C   0  0  0  0  0  0  0  0  0  0  0  0
   -0.7500    6.4952    0.0000 O   0  0  0  0  0  0  0  0  0  0  0  0
   -3.0000    5.1962    0.0000 C   0  0  0  0  0  0  0  0  0  0  0  0
   -2.3899    6.5665    0.0000 C   0  0  0  0  0  0  0  0  0  0  0  0
   -4.0037    6.3109    0.0000 C   0  0  0  0  0  0  0  0  0  0  0  0
   -5.3740    5.7008    0.0000 C   0  0  0  0  0  0  0  0  0  0  0  0
   -5.2172    4.2090    0.0000 C   0  0  0  0  0  0  0  0  0  0  0  0
   -3.7500    3.8971    0.0000 C   0  0  0  0  0  0  0  0  0  0  0  0
   -4.6317    2.6836    0.0000 O   0  0  0  0  0  0  0  0  0  0  0  0
   -3.6918    7.7781    0.0000 C   0  0  0  0  0  0  0  0  0  0  0  0
   -4.6955    8.8928    0.0000 C   0  0  0  0  0  0  0  0  0  0  0  0
   -3.9455   10.1918    0.0000 C   0  0  0  0  0  0  0  0  0  0  0  0
   -4.5556   11.5622    0.0000 O   0  0  0  0  0  0  0  0  0  0  0  0
   -2.4783    9.8800    0.0000 O   0  0  0  0  0  0  0  0  0  0  0  0
   -2.3215    8.3882    0.0000 C   0  0  0  0  0  0  0  0  0  0  0  0
   -0.7500   -1.2990    0.0000 C   0  0  0  0  0  0  0  0  0  0  0  0
   -0.7500   -3.8971    0.0000 O   0  0  0  0  0  0  0  0  0  0  0  0
   -1.5000   -5.1962    0.0000 C   0  0  0  0  0  0  0  0  0  0  0  0
   -3.0000   -5.1962    0.0000 C   0  0  0  0  0  0  0  0  0  0  0  0
   -3.7500   -6.4952    0.0000 O   0  0  0  0  0  0  0  0  0  0  0  0
   -5.2500   -6.4952    0.0000 C   0  0  0  0  0  0  0  0  0  0  0  0
   -6.0000   -5.1962    0.0000 C   0  0  0  0  0  0  0  0  0  0  0  0
  2  1  1  1
  2  3  1  0
  3  4  1  0
  4  5  1  0
  5  6  1  0
  6  7  1  6
  6  8  1  0
  8  9  1  6
  4 10  1  1
 11 10  1  6
 11 12  1  0
 12 13  1  6
 12 14  1  0
 14 15  1  0
 15 16  1  1
 17 16  1  6
 17 18  1  0
 18 19  1  6
 18 20  1  0
 20 21  1  0
 21 22  1  1
 23 22  1  6
 23 24  1  0
 24 25  1  0
 25 26  1  0
 26 27  1  6
 26 28  1  0
 28 29  1  1
 29 30  1  0
 31 30  1  1
 31 32  1  0
 32 33  1  6
 33 34  1  0
 34 35  1  6
 34 36  1  0
 36 37  1  6
 36 38  1  0
 38 39  1  0
 39 40  1  0
 40 41  1  0
 41 42  1  6
 38 43  1  6
 43 44  2  0
 44 45  1  0
 45 46  2  0
 45 47  1  0
 47 48  1  0
 28 49  1  0
 21 50  1  0
 50 51  1  0
 51 52  1  1
 15 53  1  0
 53 54  1  0
 54 55  1  1
  8  2  1  0
 54 11  1  0
 51 17  1  0
 49 23  1  0
 32 26  1  0
 41 31  1  0
 41 36  1  0
 48 43  1  0
M  END
$$$$
1926906
     RDKit          2D

 57 64  0  0  0  0  0  0  0  0999 V2000
   -7.5000   -2.5981    0.0000 C   0  0  0  0  0  0  0  0  0  0  0  0
   -8.2500   -3.8971    0.0000 C   0  0  0  0  0  0  0  0  0  0  0  0
   -7.5000   -5.1962    0.0000 O   0  0  0  0  0  0  0  0  0  0  0  0
   -8.2500   -6.4952    0.0000 C   0  0  0  0  0  0  0  0  0  0  0  0
   -9.7500   -6.4952    0.0000 C   0  0  0  0  0  0  0  0  0  0  0  0
  -10.5000   -5.1962    0.0000 C   0  0  0  0  0  0  0  0  0  0  0  0
  -12.0000   -5.1962    0.0000 O   0  0  0  0  0  0  0  0  0  0  0  0
  -12.7500   -3.8971    0.0000 C   0  0  0  0  0  0  0  0  0  0  0  0
  -12.0000   -2.5981    0.0000 O   0  0  0  0  0  0  0  0  0  0  0  0
  -14.2500   -3.8971    0.0000 C   0  0  0  0  0  0  0  0  0  0  0  0
   -9.7500   -3.8971    0.0000 C   0  0  0  0  0  0  0  0  0  0  0  0
  -10.5000   -2.5981    0.0000 O   0  0  0  0  0  0  0  0  0  0  0  0
   -7.5000   -7.7942    0.0000 O   0  0  0  0  0  0  0  0  0  0  0  0
   -6.0000   -7.7942    0.0000 C   0  0  0  0  0  0  0  0  0  0  0  0
   -5.2500   -9.0933    0.0000 C   0  0  0  0  0  0  0  0  0  0  0  0
   -6.0000  -10.3923    0.0000 O   0  0  0  0  0  0  0  0  0  0  0  0
   -3.7500   -9.0933    0.0000 C   0  0  0  0  0  0  0  0  0  0  0  0
   -3.0000   -7.7942    0.0000 C   0  0  0  0  0  0  0  0  0  0  0  0
   -1.5000   -7.7942    0.0000 O   0  0  0  0  0  0  0  0  0  0  0  0
   -0.7500   -6.4952    0.0000 C   0  0  0  0  0  0  0  0  0  0  0  0
    0.7500   -6.4952    0.0000 C   0  0  0  0  0  0  0  0  0  0  0  0
    1.5000   -7.7942    0.0000 O   0  0  0  0  0  0  0  0  0  0  0  0
    1.5000   -5.1962    0.0000 C   0  0  0  0  0  0  0  0  0  0  0  0
    0.7500   -3.8971    0.0000 C   0  0  0  0  0  0  0  0  0  0  0  0
    1.5000   -2.5981    0.0000 O   0  0  0  0  0  0  0  0  0  0  0  0
    0.7500   -1.2990    0.0000 C   0  0  0  0  0  0  0  0  0  0  0  0
    1.5000    0.0000    0.0000 C   0  0  0  0  0  0  0  0  0  0  0  0
    0.7500    1.2990    0.0000 C   0  0  0  0  0  0  0  0  0  0  0  0
   -0.7500    1.2990    0.0000 C   0  0  0  0  0  0  0  0  0  0  0  0
    0.0000    2.5981    0.0000 C   0  0  0  0  0  0  0  0  0  0  0  0
   -1.5000    0.0000    0.0000 C   0  0  0  0  0  0  0  0  0  0  0  0
   -3.0000    0.0000    0.0000 C   0  0  0  0  0  0  0  0  0  0  0  0
   -3.7500    1.2990    0.0000 C   0  0  0  0  0  0  0  0  0  0  0  0
   -3.0000    2.5981    0.0000 C   0  0  0  0  0  0  0  0  0  0  0  0
   -1.5000    2.5981    0.0000 C   0  0  0  0  0  0  0  0  0  0  0  0
   -0.7500    3.8971    0.0000 C   0  0  0  0  0  0  0  0  0  0  0  0
   -1.5000    5.1962    0.0000 C   0  0  0  0  0  0  0  0  0  0  0  0
   -3.0000    5.1962    0.0000 C   0  0  0  0  0  0  0  0  0  0  0  0
   -2.3899    6.5665    0.0000 C   0  0  0  0  0  0  0  0  0  0  0  0
   -4.0037    6.3109    0.0000 C   0  0  0  0  0  0  0  0  0  0  0  0
   -5.3740    5.7008    0.0000 C   0  0  0  0  0  0  0  0  0  0  0  0
   -5.2172    4.2090    0.0000 C   0  0  0  0  0  0  0  0  0  0  0  0
   -3.7500    3.8971    0.0000 C   0  0  0  0  0  0  0  0  0  0  0  0
   -4.6317    2.6836    0.0000 O   0  0  0  0  0  0  0  0  0  0  0  0
   -3.6918    7.7781    0.0000 C   0  0  0  0  0  0  0  0  0  0  0  0
   -4.6955    8.8928    0.0000 C   0  0  0  0  0  0  0  0  0  0  0  0
   -3.9455   10.1918    0.0000 C   0  0  0  0  0  0  0  0  0  0  0  0
   -4.5556   11.5622    0.0000 O   0  0  0  0  0  0  0  0  0  0  0  0
   -2.4783    9.8800    0.0000 O   0  0  0  0  0  0  0  0  0  0  0  0
   -2.3215    8.3882    0.0000 C   0  0  0  0  0  0  0  0  0  0  0  0
   -0.7500   -1.2990    0.0000 C   0  0  0  0  0  0  0  0  0  0  0  0
   -0.7500   -3.8971    0.0000 O   0  0  0  0  0  0  0  0  0  0  0  0
   -1.5000   -5.1962    0.0000 C   0  0  0  0  0  0  0  0  0  0  0  0
   -3.0000   -5.1962    0.0000 C   0  0  0  0  0  0  0  0  0  0  0  0
   -3.7500   -6.4952    0.0000 O   0  0  0  0  0  0  0  0  0  0  0  0
   -5.2500   -6.4952    0.0000 C   0  0  0  0  0  0  0  0  0  0  0  0
   -6.0000   -5.1962    0.0000 C   0  0  0  0  0  0  0  0  0  0  0  0
  2  1  1  1
  2  3  1  0
  3  4  1  0
  4  5  1  0
  5  6  1  0
  6  7  1  6
  7  8  1  0
  8  9  2  0
  8 10  1  0
  6 11  1  0
 11 12  1  6
  4 13  1  1
 14 13  1  6
 14 15  1  0
 15 16  1  6
 15 17  1  0
 17 18  1  0
 18 19  1  1
 20 19  1  6
 20 21  1  0
 21 22  1  6
 21 23  1  0
 23 24  1  0
 24 25  1  1
 26 25  1  6
 26 27  1  0
 27 28  1  0
 28 29  1  0
 29 30  1  6
 29 31  1  0
 31 32  1  1
 32 33  1  0
 34 33  1  1
 34 35  1  0
 35 36  1  6
 36 37  1  0
 37 38  1  0
 38 39  1  6
 38 40  1  0
 40 41  1  0
 41 42  1  0
 42 43  1  0
 43 44  1  6
 40 45  1  6
 45 46  2  0
 46 47  1  0
 47 48  2  0
 47 49  1  0
 49 50  1  0
 31 51  1  0
 24 52  1  0
 52 53  1  0
 53 54  1  1
 18 55  1  0
 55 56  1  0
 56 57  1  1
 11  2  1  0
 56 14  1  0
 53 20  1  0
 51 26  1  0
 35 29  1  0
 43 34  1  0
 43 38  1  0
 50 45  1  0
M  END
$$$$
448986
     RDKit          2D

 44 47  0  0  0  0  0  0  0  0999 V2000
    3.0000    0.0000    0.0000 C   0  0  0  0  0  0  0  0  0  0  0  0
    1.5000    0.0000    0.0000 C   0  0  0  0  0  0  0  0  0  0  0  0
    0.7500   -1.2990    0.0000 O   0  0  0  0  0  0  0  0  0  0  0  0
   -0.7500   -1.2990    0.0000 C   0  0  0  0  0  0  0  0  0  0  0  0
   -1.5000   -2.5981    0.0000 O   0  0  0  0  0  0  0  0  0  0  0  0
   -0.7500   -3.8971    0.0000 C   0  0  0  0  0  0  0  0  0  0  0  0
   -1.5000   -5.1962    0.0000 C   0  0  0  0  0  0  0  0  0  0  0  0
   -3.0000   -5.1962    0.0000 O   0  0  0  0  0  0  0  0  0  0  0  0
   -0.7500   -6.4952    0.0000 C   0  0  0  0  0  0  0  0  0  0  0  0
   -1.5000   -7.7942    0.0000 O   0  0  0  0  0  0  0  0  0  0  0  0
    0.7500   -6.4952    0.0000 C   0  0  0  0  0  0  0  0  0  0  0  0
    1.5000   -7.7942    0.0000 O   0  0  0  0  0  0  0  0  0  0  0  0
    3.0000   -7.7942    0.0000 C   0  0  0  0  0  0  0  0  0  0  0  0
    3.7500   -9.0933    0.0000 C   0  0  0  0  0  0  0  0  0  0  0  0
    3.0000  -10.3923    0.0000 O   0  0  0  0  0  0  0  0  0  0  0  0
    5.2500   -9.0933    0.0000 C   0  0  0  0  0  0  0  0  0  0  0  0
    6.0000  -10.3923    0.0000 O   0  0  0  0  0  0  0  0  0  0  0  0
    6.0000   -7.7942    0.0000 C   0  0  0  0  0  0  0  0  0  0  0  0
    7.5000   -7.7942    0.0000 O   0  0  0  0  0  0  0  0  0  0  0  0
    5.2500   -6.4952    0.0000 O   0  0  0  0  0  0  0  0  0  0  0  0
    3.7500   -6.4952    0.0000 C   0  0  0  0  0  0  0  0  0  0  0  0
    3.0000   -5.1962    0.0000 C   0  0  0  0  0  0  0  0  0  0  0  0
    3.7500   -3.8971    0.0000 O   0  0  0  0  0  0  0  0  0  0  0  0
    1.5000   -5.1962    0.0000 O   0  0  0  0  0  0  0  0  0  0  0  0
    0.7500   -3.8971    0.0000 C   0  0  0  0  0  0  0  0  0  0  0  0
    1.5000   -2.5981    0.0000 C   0  0  0  0  0  0  0  0  0  0  0  0
    3.0000   -2.5981    0.0000 O   0  0  0  0  0  0  0  0  0  0  0  0
   -1.5000    0.0000    0.0000 C   0  0  0  0  0  0  0  0  0  0  0  0
   -3.0000    0.0000    0.0000 O   0  0  0  0  0  0  0  0  0  0  0  0
   -0.7500    1.2990    0.0000 C   0  0  0  0  0  0  0  0  0  0  0  0
   -1.5000    2.5981    0.0000 O   0  0  0  0  0  0  0  0  0  0  0  0
    0.7500    1.2990    0.0000 C   0  0  0  0  0  0  0  0  0  0  0  0
    1.5000    2.5981    0.0000 N   0  0  0  0  0  0  0  0  0  0  0  0
    3.0000    2.5981    0.0000 C   0  0  0  0  0  0  0  0  0  0  0  0
    3.7500    1.2990    0.0000 C   0  0  0  0  0  0  0  0  0  0  0  0
    5.2500    1.2990    0.0000 C   0  0  0  0  0  0  0  0  0  0  0  0
    6.0000   -0.0000    0.0000 C   0  0  0  0  0  0  0  0  0  0  0  0
    7.5000   -0.0000    0.0000 O   0  0  0  0  0  0  0  0  0  0  0  0
    6.0000    2.5981    0.0000 C   0  0  0  0  0  0  0  0  0  0  0  0
    7.5000    2.5981    0.0000 O   0  0  0  0  0  0  0  0  0  0  0  0
    5.2500    3.8971    0.0000 C   0  0  0  0  0  0  0  0  0  0  0  0
    6.0000    5.1962    0.0000 O   0  0  0  0  0  0  0  0  0  0  0  0
    3.7500    3.8971    0.0000 C   0  0  0  0  0  0  0  0  0  0  0  0
    3.0000    5.1962    0.0000 O   0  0  0  0  0  0  0  0  0  0  0  0
  2  1  1  1
  2  3  1  0
  3  4  1  0
  4  5  1  6
  6  5  1  6
  6  7  1  0
  7  8  1  1
  7  9  1  0
  9 10  1  6
  9 11  1  0
 11 12  1  6
 13 12  1  6
 13 14  1  0
 14 15  1  1
 14 16  1  0
 16 17  1  6
 16 18  1  0
 18 19  1  1
 18 20  1  0
 20 21  1  0
 21 22  1  1
 22 23  1  0
 11 24  1  0
 24 25  1  0
 25 26  1  1
 26 27  1  0
  4 28  1  0
 28 29  1  6
 28 30  1  0
 30 31  1  1
 30 32  1  0
 32 33  1  6
 34 33  1  6
 34 35  1  0
 35 36  2  0
 36 37  1  0
 37 38  1  0
 36 39  1  0
 39 40  1  6
 39 41  1  0
 41 42  1  1
 41 43  1  0
 43 44  1  6
 32  2  1  0
 25  6  1  0
 21 13  1  0
 43 34  1  0
M  END
$$$$
16117
     RDKit          2D

 21 23  0  0  0  0  0  0  0  0999 V2000
   -0.9697   -4.6634    0.0000 C   0  0  0  0  0  0  0  0  0  0  0  0
   -0.7500   -3.8971    0.0000 C   0  0  0  0  0  0  0  0  0  0  0  0
    0.7500   -3.8971    0.0000 C   0  0  0  0  0  0  0  0  0  0  0  0
    1.5000   -2.5981    0.0000 C   0  0  0  0  0  0  0  0  0  0  0  0
    0.7500   -1.2990    0.0000 C   0  0  0  0  0  0  0  0  0  0  0  0
    1.5000    0.0000    0.0000 C   0  0  0  0  0  0  0  0  0  0  0  0
    0.7500    1.2990    0.0000 C   0  0  0  0  0  0  0  0  0  0  0  0
   -0.7500    1.2990    0.0000 C   0  0  0  0  0  0  0  0  0  0  0  0
   -1.5000    2.5981    0.0000 O   0  0  0  0  0  0  0  0  0  0  0  0
   -1.5000    0.0000    0.0000 C   0  0  0  0  0  0  0  0  0  0  0  0
   -0.7500   -1.2990    0.0000 C   0  0  0  0  0  0  0  0  0  0  0  0
   -1.5000   -2.5981    0.0000 C   0  0  0  0  0  0  0  0  0  0  0  0
   -3.0000   -2.5981    0.0000 C   0  0  0  0  0  0  0  0  0  0  0  0
   -2.2500   -3.8971    0.0000 C   0  0  0  0  0  0  0  0  0  0  0  0
   -1.5000   -5.1962    0.0000 C   0  0  0  0  0  0  0  0  0  0  0  0
    0.0000   -5.1962    0.0000 N   0  0  0  0  0  0  0  0  0  0  0  0
    0.7500   -6.4952    0.0000 C   0  0  0  0  0  0  0  0  0  0  0  0
    2.2500   -6.4952    0.0000 C   0  0  0  0  0  0  0  0  0  0  0  0
    3.0000   -7.7942    0.0000 C   0  0  0  0  0  0  0  0  0  0  0  0
    4.5000   -7.7942    0.0000 C   0  0  0  0  0  0  0  0  0  0  0  0
    2.2500   -9.0933    0.0000 C   0  0  0  0  0  0  0  0  0  0  0  0
  2  1  1  6
  2  3  1  0
  3  4  1  1
  4  5  1  0
  5  6  2  0
  6  7  1  0
  7  8  2  0
  8  9  1  0
  8 10  1  0
 10 11  2  0
 11 12  1  0
 12 13  1  6
 12 14  1  0
 14 15  1  0
 15 16  1  0
 16 17  1  0
 17 18  1  0
 18 19  2  0
 19 20  1  0
 19 21  1  0
 12  2  1  0
 16  3  1  0
 11  5  1  0
M  END
$$$$
3730
     RDKit          2D

 15 15  0  0  0  0  0  0  0  0999 V2000
    4.5000   -2.5981    0.0000 C   0  0  0  0  0  0  0  0  0  0  0  0
    3.7500   -1.2990    0.0000 C   0  0  0  0  0  0  0  0  0  0  0  0
    2.4510   -2.0490    0.0000 N   0  0  0  0  0  0  0  0  0  0  0  0
    3.0000    0.0000    0.0000 C   0  0  0  0  0  0  0  0  0  0  0  0
    1.5000    0.0000    0.0000 C   0  0  0  0  0  0  0  0  0  0  0  0
    0.7500   -1.2990    0.0000 C   0  0  0  0  0  0  0  0  0  0  0  0
   -0.7500   -1.2990    0.0000 C   0  0  0  0  0  0  0  0  0  0  0  0
   -1.5000    0.0000    0.0000 C   0  0  0  0  0  0  0  0  0  0  0  0
   -3.0000    0.0000    0.0000 O   0  0  0  0  0  0  0  0  0  0  0  0
   -0.7500    1.2990    0.0000 C   0  0  0  0  0  0  0  0  0  0  0  0
   -1.5000    2.5981    0.0000 O   0  0  0  0  0  0  0  0  0  0  0  0
    0.7500    1.2990    0.0000 C   0  0  0  0  0  0  0  0  0  0  0  0
    5.0490   -0.5490    0.0000 C   0  0  0  0  0  0  0  0  0  0  0  0
    5.0490    0.9510    0.0000 O   0  0  0  0  0  0  0  0  0  0  0  0
    6.3481   -1.2990    0.0000 O   0  0  0  0  0  0  0  0  0  0  0  0
  2  1  1  6
  2  3  1  0
  2  4  1  0
  4  5  1  0
  5  6  2  0
  6  7  1  0
  7  8  2  0
  8  9  1  0
  8 10  1  0
 10 11  1  0
 10 12  2  0
  2 13  1  0
 13 14  2  0
 13 15  1  0
 12  5  1  0
M  END
$$$$
674813
     RDKit          2D

 14 14  0  0  0  0  0  0  0  0999 V2000
    4.5000   -2.5981    0.0000 C   0  0  0  0  0  0  0  0  0  0  0  0
    3.7500   -1.2990    0.0000 C   0  0  0  0  0  0  0  0  0  0  0  0
    2.4510   -2.0490    0.0000 N   0  0  0  0  0  0  0  0  0  0  0  0
    3.0000    0.0000    0.0000 C   0  0  0  0  0  0  0  0  0  0  0  0
    1.5000    0.0000    0.0000 C   0  0  0  0  0  0  0  0  0  0  0  0
    0.7500   -1.2990    0.0000 C   0  0  0  0  0  0  0  0  0  0  0  0
   -0.7500   -1.2990    0.0000 C   0  0  0  0  0  0  0  0  0  0  0  0
   -1.5000    0.0000    0.0000 C   0  0  0  0  0  0  0  0  0  0  0  0
   -3.0000    0.0000    0.0000 O   0  0  0  0  0  0  0  0  0  0  0  0
   -0.7500    1.2990    0.0000 C   0  0  0  0  0  0  0  0  0  0  0  0
    0.7500    1.2990    0.0000 C   0  0  0  0  0  0  0  0  0  0  0  0
    5.0490   -0.5490    0.0000 C   0  0  0  0  0  0  0  0  0  0  0  0
    5.0490    0.9510    0.0000 O   0  0  0  0  0  0  0  0  0  0  0  0
    6.3481   -1.2990    0.0000 O   0  0  0  0  0  0  0  0  0  0  0  0
  2  1  1  6
  2  3  1  0
  2  4  1  0
  4  5  1  0
  5  6  2  0
  6  7  1  0
  7  8  2  0
  8  9  1  0
  8 10  1  0
 10 11  2  0
  2 12  1  0
 12 13  2  0
 12 14  1  0
 11  5  1  0
M  END
$$$$
377718
     RDKit          2D

 24 27  0  0  0  0  0  0  0  0999 V2000
   -4.2135   -7.9218    0.0000 C   0  0  0  0  0  0  0  0  0  0  0  0
   -3.4635   -6.6227    0.0000 C   0  0  0  0  0  0  0  0  0  0  0  0
   -4.8980   -6.1842    0.0000 O   0  0  0  0  0  0  0  0  0  0  0  0
   -2.2500   -7.5044    0.0000 C   0  0  0  0  0  0  0  0  0  0  0  0
   -1.0365   -6.6227    0.0000 C   0  0  0  0  0  0  0  0  0  0  0  0
   -1.5000   -5.1962    0.0000 C   0  0  0  0  0  0  0  0  0  0  0  0
   -0.7500   -3.8971    0.0000 C   0  0  0  0  0  0  0  0  0  0  0  0
    0.7500   -3.8971    0.0000 C   0  0  0  0  0  0  0  0  0  0  0  0
    1.5000   -2.5981    0.0000 C   0  0  0  0  0  0  0  0  0  0  0  0
    0.7500   -1.2990    0.0000 C   0  0  0  0  0  0  0  0  0  0  0  0
    1.5000    0.0000    0.0000 C   0  0  0  0  0  0  0  0  0  0  0  0
    0.7500    1.2990    0.0000 C   0  0  0  0  0  0  0  0  0  0  0  0
    1.5000    2.5981    0.0000 O   0  0  0  0  0  0  0  0  0  0  0  0
   -0.7500    1.2990    0.0000 C   0  0  0  0  0  0  0  0  0  0  0  0
   -1.5000    0.0000    0.0000 C   0  0  0  0  0  0  0  0  0  0  0  0
   -0.7500   -1.2990    0.0000 C   0  0  0  0  0  0  0  0  0  0  0  0
   -2.2500   -1.2990    0.0000 C   0  0  0  0  0  0  0  0  0  0  0  0
   -1.5000   -2.5981    0.0000 C   0  0  0  0  0  0  0  0  0  0  0  0
   -2.2500   -3.8971    0.0000 F   0  0  0  0  0  0  0  0  0  0  0  0
   -3.0000   -2.5981    0.0000 C   0  0  0  0  0  0  0  0  0  0  0  0
   -3.7500   -1.2990    0.0000 O   0  0  0  0  0  0  0  0  0  0  0  0
   -3.7500   -3.8971    0.0000 C   0  0  0  0  0  0  0  0  0  0  0  0
   -3.0000   -5.1962    0.0000 C   0  0  0  0  0  0  0  0  0  0  0  0
   -4.4998   -5.1699    0.0000 C   0  0  0  0  0  0  0  0  0  0  0  0
  2  1  1  1
  2  3  1  0
  2  4  1  0
  4  5  1  0
  6  5  1  6
  6  7  1  0
  7  8  1  1
  8  9  1  0
  9 10  1  0
 10 11  2  0
 11 12  1  0
 12 13  2  0
 12 14  1  0
 14 15  1  0
 15 16  1  0
 16 17  1  6
 16 18  1  0
 18 19  1  1
 18 20  1  0
 20 21  1  6
 20 22  1  0
 22 23  1  0
 23 24  1  6
 23  2  1  0
 23  6  1  0
 18  7  1  0
 16 10  1  0
M  END
$$$$
328400
     RDKit          2D

 22 25  0  0  0  0  0  0  0  0999 V2000
   -4.2135   -7.9218    0.0000 C   0  0  0  0  0  0  0  0  0  0  0  0
   -3.4635   -6.6227    0.0000 C   0  0  0  0  0  0  0  0  0  0  0  0
   -4.8980   -6.1842    0.0000 O   0  0  0  0  0  0  0  0  0  0  0  0
   -2.2500   -7.5044    0.0000 C   0  0  0  0  0  0  0  0  0  0  0  0
   -1.0365   -6.6227    0.0000 C   0  0  0  0  0  0  0  0  0  0  0  0
   -1.5000   -5.1962    0.0000 C   0  0  0  0  0  0  0  0  0  0  0  0
   -0.7500   -3.8971    0.0000 C   0  0  0  0  0  0  0  0  0  0  0  0
    0.7500   -3.8971    0.0000 C   0  0  0  0  0  0  0  0  0  0  0  0
    1.5000   -2.5981    0.0000 C   0  0  0  0  0  0  0  0  0  0  0  0
    0.7500   -1.2990    0.0000 C   0  0  0  0  0  0  0  0  0  0  0  0
    1.5000    0.0000    0.0000 C   0  0  0  0  0  0  0  0  0  0  0  0
    0.7500    1.2990    0.0000 C   0  0  0  0  0  0  0  0  0  0  0  0
    1.5000    2.5981    0.0000 O   0  0  0  0  0  0  0  0  0  0  0  0
   -0.7500    1.2990    0.0000 C   0  0  0  0  0  0  0  0  0  0  0  0
   -1.5000    0.0000    0.0000 C   0  0  0  0  0  0  0  0  0  0  0  0
   -0.7500   -1.2990    0.0000 C   0  0  0  0  0  0  0  0  0  0  0  0
   -2.2500   -1.2990    0.0000 C   0  0  0  0  0  0  0  0  0  0  0  0
   -1.5000   -2.5981    0.0000 C   0  0  0  0  0  0  0  0  0  0  0  0
   -3.0000   -2.5981    0.0000 C   0  0  0  0  0  0  0  0  0  0  0  0
   -3.7500   -3.8971    0.0000 C   0  0  0  0  0  0  0  0  0  0  0  0
   -3.0000   -5.1962    0.0000 C   0  0  0  0  0  0  0  0  0  0  0  0
   -4.4998   -5.1699    0.0000 C   0  0  0  0  0  0  0  0  0  0  0  0
  2  1  1  1
  2  3  1  0
  2  4  1  0
  4  5  1  0
  6  5  1  6
  6  7  1  0
  7  8  1  1
  8  9  1  0
  9 10  1  0
 10 11  2  0
 11 12  1  0
 12 13  2  0
 12 14  1  0
 14 15  1  0
 15 16  1  0
 16 17  1  6
 16 18  1  0
 18 19  1  6
 19 20  1  0
 20 21  1  0
 21 22  1  6
 21  2  1  0
 21  6  1  0
 18  7  1  0
 16 10  1  0
M  END
$$$$
674387
     RDKit          2D

 22 25  0  0  0  0  0  0  0  0999 V2000
   -4.2135   -7.9218    0.0000 C   0  0  0  0  0  0  0  0  0  0  0  0
   -3.4635   -6.6227    0.0000 C   0  0  0  0  0  0  0  0  0  0  0  0
   -4.8980   -6.1842    0.0000 O   0  0  0  0  0  0  0  0  0  0  0  0
   -2.2500   -7.5044    0.0000 C   0  0  0  0  0  0  0  0  0  0  0  0
   -1.0365   -6.6227    0.0000 C   0  0  0  0  0  0  0  0  0  0  0  0
   -1.5000   -5.1962    0.0000 C   0  0  0  0  0  0  0  0  0  0  0  0
   -0.7500   -3.8971    0.0000 C   0  0  0  0  0  0  0  0  0  0  0  0
    0.7500   -3.8971    0.0000 C   0  0  0  0  0  0  0  0  0  0  0  0
    1.5000   -2.5981    0.0000 C   0  0  0  0  0  0  0  0  0  0  0  0
    0.7500   -1.2990    0.0000 C   0  0  0  0  0  0  0  0  0  0  0  0
    1.5000    0.0000    0.0000 C   0  0  0  0  0  0  0  0  0  0  0  0
    0.7500    1.2990    0.0000 C   0  0  0  0  0  0  0  0  0  0  0  0
    1.5000    2.5981    0.0000 O   0  0  0  0  0  0  0  0  0  0  0  0
   -0.7500    1.2990    0.0000 O   0  0  0  0  0  0  0  0  0  0  0  0
   -1.5000    0.0000    0.0000 C   0  0  0  0  0  0  0  0  0  0  0  0
   -0.7500   -1.2990    0.0000 C   0  0  0  0  0  0  0  0  0  0  0  0
   -2.2500   -1.2990    0.0000 C   0  0  0  0  0  0  0  0  0  0  0  0
   -1.5000   -2.5981    0.0000 C   0  0  0  0  0  0  0  0  0  0  0  0
   -3.0000   -2.5981    0.0000 C   0  0  0  0  0  0  0  0  0  0  0  0
   -3.7500   -3.8971    0.0000 C   0  0  0  0  0  0  0  0  0  0  0  0
   -3.0000   -5.1962    0.0000 C   0  0  0  0  0  0  0  0  0  0  0  0
   -4.4998   -5.1699    0.0000 C   0  0  0  0  0  0  0  0  0  0  0  0
  2  1  1  1
  2  3  1  0
  2  4  1  0
  4  5  1  0
  6  5  1  6
  6  7  1  0
  7  8  1  1
  8  9  1  0
 10  9  1  6
 10 11  1  0
 11 12  1  0
 12 13  2  0
 12 14  1  0
 14 15  1  0
 15 16  1  0
 16 17  1  6
 16 18  1  0
 18 19  1  6
 19 20  1  0
 20 21  1  0
 21 22  1  6
 21  2  1  0
 21  6  1  0
 18  7  1  0
 16 10  1  0
M  END
$$$$
674536
     RDKit          2D

 24 27  0  0  0  0  0  0  0  0999 V2000
    2.3907    1.0037    0.0000 C   0  0  0  0  0  0  0  0  0  0  0  0
    1.2760    0.0000    0.0000 C   0  0  0  0  0  0  0  0  0  0  0  0
    2.5047   -0.8603    0.0000 O   0  0  0  0  0  0  0  0  0  0  0  0
    0.3943    1.2135    0.0000 C   0  0  0  0  0  0  0  0  0  0  0  0
   -1.0323    0.7500    0.0000 C   0  0  0  0  0  0  0  0  0  0  0  0
   -1.0323   -0.7500    0.0000 C   0  0  0  0  0  0  0  0  0  0  0  0
   -2.1470   -1.7537    0.0000 C   0  0  0  0  0  0  0  0  0  0  0  0
   -3.5736   -1.2902    0.0000 C   0  0  0  0  0  0  0  0  0  0  0  0
   -4.6883   -2.2939    0.0000 C   0  0  0  0  0  0  0  0  0  0  0  0
   -4.3764   -3.7611    0.0000 C   0  0  0  0  0  0  0  0  0  0  0  0
   -5.4912   -4.7648    0.0000 C   0  0  0  0  0  0  0  0  0  0  0  0
   -5.1793   -6.2320    0.0000 C   0  0  0  0  0  0  0  0  0  0  0  0
   -6.2940   -7.2357    0.0000 O   0  0  0  0  0  0  0  0  0  0  0  0
   -3.7527   -6.6955    0.0000 C   0  0  0  0  0  0  0  0  0  0  0  0
   -3.4408   -8.1628    0.0000 C   0  0  0  0  0  0  0  0  0  0  0  0
   -4.5556   -9.1664    0.0000 O   0  0  0  0  0  0  0  0  0  0  0  0
   -2.6380   -5.6918    0.0000 C   0  0  0  0  0  0  0  0  0  0  0  0
   -2.9499   -4.2246    0.0000 C   0  0  0  0  0  0  0  0  0  0  0  0
   -1.5233   -4.6881    0.0000 C   0  0  0  0  0  0  0  0  0  0  0  0
   -1.8351   -3.2209    0.0000 C   0  0  0  0  0  0  0  0  0  0  0  0
   -0.4086   -3.6844    0.0000 C   0  0  0  0  0  0  0  0  0  0  0  0
    0.7062   -2.6807    0.0000 C   0  0  0  0  0  0  0  0  0  0  0  0
    0.3943   -1.2135    0.0000 C   0  0  0  0  0  0  0  0  0  0  0  0
    1.8126   -1.7019    0.0000 C   0  0  0  0  0  0  0  0  0  0  0  0
  2  1  1  1
  2  3  1  0
  2  4  1  0
  4  5  1  0
  6  5  1  6
  6  7  1  0
  7  8  1  1
  8  9  1  0
 10  9  1  6
 10 11  1  0
 11 12  1  0
 12 13  2  0
 12 14  1  0
 14 15  2  0
 15 16  1  0
 14 17  1  0
 17 18  1  0
 18 19  1  6
 18 20  1  0
 20 21  1  6
 21 22  1  0
 22 23  1  0
 23 24  1  6
 23  2  1  0
 23  6  1  0
 20  7  1  0
 18 10  1  0
M  END
$$$$
1363818
     RDKit          2D

 24 28  0  0  0  0  0  0  0  0999 V2000
   -7.1757    8.4492    0.0000 C   0  0  0  0  0  0  0  0  0  0  0  0
   -6.0610    7.4455    0.0000 C   0  0  0  0  0  0  0  0  0  0  0  0
   -7.2897    6.5852    0.0000 O   0  0  0  0  0  0  0  0  0  0  0  0
   -5.1793    8.6591    0.0000 C   0  0  0  0  0  0  0  0  0  0  0  0
   -3.7527    8.1955    0.0000 C   0  0  0  0  0  0  0  0  0  0  0  0
   -3.7527    6.6955    0.0000 C   0  0  0  0  0  0  0  0  0  0  0  0
   -2.6380    5.6918    0.0000 C   0  0  0  0  0  0  0  0  0  0  0  0
   -1.2114    6.1554    0.0000 C   0  0  0  0  0  0  0  0  0  0  0  0
   -0.0967    5.1517    0.0000 C   0  0  0  0  0  0  0  0  0  0  0  0
   -0.4086    3.6844    0.0000 C   0  0  0  0  0  0  0  0  0  0  0  0
    0.7062    2.6807    0.0000 C   0  0  0  0  0  0  0  0  0  0  0  0
    0.3943    1.2135    0.0000 C   0  0  0  0  0  0  0  0  0  0  0  0
    1.2760    0.0000    0.0000 N   0  0  0  0  0  0  0  0  0  0  0  0
    0.3943   -1.2135    0.0000 N   0  0  0  0  0  0  0  0  0  0  0  0
   -1.0323   -0.7500    0.0000 C   0  0  0  0  0  0  0  0  0  0  0  0
   -1.0323    0.7500    0.0000 C   0  0  0  0  0  0  0  0  0  0  0  0
   -2.1470    1.7537    0.0000 C   0  0  0  0  0  0  0  0  0  0  0  0
   -1.8351    3.2209    0.0000 C   0  0  0  0  0  0  0  0  0  0  0  0
   -3.2617    2.7574    0.0000 C   0  0  0  0  0  0  0  0  0  0  0  0
   -2.9499    4.2246    0.0000 C   0  0  0  0  0  0  0  0  0  0  0  0
   -4.3764    3.7611    0.0000 C   0  0  0  0  0  0  0  0  0  0  0  0
   -5.4912    4.7648    0.0000 C   0  0  0  0  0  0  0  0  0  0  0  0
   -5.1793    6.2320    0.0000 C   0  0  0  0  0  0  0  0  0  0  0  0
   -6.5976    5.7436    0.0000 C   0  0  0  0  0  0  0  0  0  0  0  0
  2  1  1  6
  2  3  1  0
  2  4  1  0
  4  5  1  0
  6  5  1  1
  6  7  1  0
  7  8  1  6
  8  9  1  0
 10  9  1  1
 10 11  1  0
 11 12  1  0
 12 13  2  0
 13 14  1  0
 14 15  1  0
 15 16  2  0
 16 17  1  0
 17 18  1  0
 18 19  1  1
 18 20  1  0
 20 21  1  1
 21 22  1  0
 22 23  1  0
 23 24  1  1
 23  2  1  0
 23  6  1  0
 20  7  1  0
 18 10  1  0
 16 12  1  0
M  END
$$$$
27229
     RDKit          2D

 26 29  0  0  0  0  0  0  0  0999 V2000
   -4.4998   -5.1699    0.0000 C   0  0  0  0  0  0  0  0  0  0  0  0
   -3.0000   -5.1962    0.0000 C   0  0  0  0  0  0  0  0  0  0  0  0
   -3.7500   -3.8971    0.0000 C   0  0  0  0  0  0  0  0  0  0  0  0
   -3.0000   -2.5981    0.0000 C   0  0  0  0  0  0  0  0  0  0  0  0
   -3.7500   -1.2990    0.0000 O   0  0  0  0  0  0  0  0  0  0  0  0
   -1.5000   -2.5981    0.0000 C   0  0  0  0  0  0  0  0  0  0  0  0
   -0.7500   -3.8971    0.0000 C   0  0  0  0  0  0  0  0  0  0  0  0
    0.7500   -3.8971    0.0000 C   0  0  0  0  0  0  0  0  0  0  0  0
    1.5000   -2.5981    0.0000 C   0  0  0  0  0  0  0  0  0  0  0  0
    0.7500   -1.2990    0.0000 C   0  0  0  0  0  0  0  0  0  0  0  0
    1.5000    0.0000    0.0000 C   0  0  0  0  0  0  0  0  0  0  0  0
    0.7500    1.2990    0.0000 C   0  0  0  0  0  0  0  0  0  0  0  0
    1.5000    2.5981    0.0000 O   0  0  0  0  0  0  0  0  0  0  0  0
   -0.7500    1.2990    0.0000 C   0  0  0  0  0  0  0  0  0  0  0  0
   -1.5000    0.0000    0.0000 C   0  0  0  0  0  0  0  0  0  0  0  0
   -0.7500   -1.2990    0.0000 C   0  0  0  0  0  0  0  0  0  0  0  0
   -2.2500   -1.2990    0.0000 C   0  0  0  0  0  0  0  0  0  0  0  0
   -1.5000   -5.1962    0.0000 C   0  0  0  0  0  0  0  0  0  0  0  0
   -1.0365   -6.6227    0.0000 C   0  0  0  0  0  0  0  0  0  0  0  0
   -2.2500   -7.5044    0.0000 C   0  0  0  0  0  0  0  0  0  0  0  0
   -3.4635   -6.6227    0.0000 C   0  0  0  0  0  0  0  0  0  0  0  0
   -4.8980   -6.1842    0.0000 O   0  0  0  0  0  0  0  0  0  0  0  0
   -4.2135   -7.9218    0.0000 C   0  0  0  0  0  0  0  0  0  0  0  0
   -3.4635   -9.2208    0.0000 O   0  0  0  0  0  0  0  0  0  0  0  0
   -5.7135   -7.9218    0.0000 C   0  0  0  0  0  0  0  0  0  0  0  0
   -6.4635   -9.2208    0.0000 O   0  0  0  0  0  0  0  0  0  0  0  0
  2  1  1  6
  2  3  1  0
  3  4  1  0
  4  5  2  0
  6  4  1  6
  6  7  1  0
  7  8  1  1
  8  9  1  0
  9 10  1  0
 10 11  2  0
 11 12  1  0
 12 13  2  0
 12 14  1  0
 14 15  2  0
 15 16  1  0
 16 17  1  6
  7 18  1  0
 18 19  1  6
 19 20  1  0
 20 21  1  0
 21 22  1  1
 21 23  1  0
 23 24  2  0
 23 25  1  0
 25 26  1  0
 18  2  1  0
 21  2  1  0
 16  6  1  0
 16 10  1  0
M  END
$$$$
405364
     RDKit          2D

 25 29  0  0  0  0  0  0  0  0999 V2000
    1.0180    4.1480    0.0000 C   0  0  0  0  0  0  0  0  0  0  0  0
   -0.4086    3.6844    0.0000 C   0  0  0  0  0  0  0  0  0  0  0  0
    0.7062    2.6807    0.0000 C   0  0  0  0  0  0  0  0  0  0  0  0
    0.3943    1.2135    0.0000 C   0  0  0  0  0  0  0  0  0  0  0  0
    1.2760    0.0000    0.0000 C   0  0  0  0  0  0  0  0  0  0  0  0
    0.3943   -1.2135    0.0000 N   0  0  0  0  0  0  0  0  0  0  0  0
   -1.0323   -0.7500    0.0000 O   0  0  0  0  0  0  0  0  0  0  0  0
   -1.0323    0.7500    0.0000 C   0  0  0  0  0  0  0  0  0  0  0  0
   -2.1470    1.7537    0.0000 C   0  0  0  0  0  0  0  0  0  0  0  0
   -1.8351    3.2209    0.0000 C   0  0  0  0  0  0  0  0  0  0  0  0
   -2.9499    4.2246    0.0000 C   0  0  0  0  0  0  0  0  0  0  0  0
   -2.6380    5.6918    0.0000 C   0  0  0  0  0  0  0  0  0  0  0  0
   -1.2114    6.1554    0.0000 C   0  0  0  0  0  0  0  0  0  0  0  0
   -0.0967    5.1517    0.0000 C   0  0  0  0  0  0  0  0  0  0  0  0
    1.3299    5.6152    0.0000 C   0  0  0  0  0  0  0  0  0  0  0  0
    1.6418    7.0824    0.0000 C   0  0  0  0  0  0  0  0  0  0  0  0
    0.5271    8.0861    0.0000 C   0  0  0  0  0  0  0  0  0  0  0  0
    1.9615    8.5246    0.0000 C   0  0  0  0  0  0  0  0  0  0  0  0
   -0.8995    7.6226    0.0000 C   0  0  0  0  0  0  0  0  0  0  0  0
   -1.7812    8.8361    0.0000 C   0  0  0  0  0  0  0  0  0  0  0  0
   -0.8995   10.0496    0.0000 C   0  0  0  0  0  0  0  0  0  0  0  0
    0.5271    9.5861    0.0000 C   0  0  0  0  0  0  0  0  0  0  0  0
    2.0268    9.6123    0.0000 O   0  0  0  0  0  0  0  0  0  0  0  0
    0.8389   11.0533    0.0000 C   0  0  0  0  0  0  0  0  0  0  0  0
    1.1508   12.5205    0.0000 C   0  0  0  0  0  0  0  0  0  0  0  0
  2  1  1  6
  2  3  1  0
  3  4  1  0
  4  5  1  0
  5  6  2  0
  6  7  1  0
  7  8  1  0
  8  9  1  0
  9 10  2  0
 10 11  1  0
 11 12  1  0
 13 12  1  1
 13 14  1  0
 14 15  1  6
 15 16  1  0
 16 17  1  0
 17 18  1  6
 17 19  1  0
 19 20  1  6
 20 21  1  0
 21 22  1  0
 22 23  1  6
 22 24  1  0
 24 25  3  0
 10  2  1  0
 14  2  1  0
  8  4  2  0
 19 13  1  0
 22 17  1  0
M  END
$$$$
374052
     RDKit          2D

 26 29  0  0  0  0  0  0  0  0999 V2000
    2.2500   -1.2990    0.0000 C   0  0  0  0  0  0  0  0  0  0  0  0
    0.7500   -1.2990    0.0000 C   0  0  0  0  0  0  0  0  0  0  0  0
    1.5000    0.0000    0.0000 C   0  0  0  0  0  0  0  0  0  0  0  0
    0.7500    1.2990    0.0000 C   0  0  0  0  0  0  0  0  0  0  0  0
   -0.7500    1.2990    0.0000 C   0  0  0  0  0  0  0  0  0  0  0  0
   -1.5000    2.5981    0.0000 O   0  0  0  0  0  0  0  0  0  0  0  0
   -1.5000    0.0000    0.0000 C   0  0  0  0  0  0  0  0  0  0  0  0
   -0.7500   -1.2990    0.0000 C   0  0  0  0  0  0  0  0  0  0  0  0
   -1.5000   -2.5981    0.0000 C   0  0  0  0  0  0  0  0  0  0  0  0
   -0.7500   -3.8971    0.0000 C   0  0  0  0  0  0  0  0  0  0  0  0
    0.7500   -3.8971    0.0000 C   0  0  0  0  0  0  0  0  0  0  0  0
    1.5000   -5.1962    0.0000 C   0  0  0  0  0  0  0  0  0  0  0  0
    1.0365   -6.6227    0.0000 C   0  0  0  0  0  0  0  0  0  0  0  0
    2.2500   -7.5044    0.0000 C   0  0  0  0  0  0  0  0  0  0  0  0
    3.4635   -6.6227    0.0000 C   0  0  0  0  0  0  0  0  0  0  0  0
    4.8980   -6.1842    0.0000 O   0  0  0  0  0  0  0  0  0  0  0  0
    4.2135   -7.9218    0.0000 C   0  0  0  0  0  0  0  0  0  0  0  0
    5.7135   -7.9218    0.0000 O   0  0  0  0  0  0  0  0  0  0  0  0
    3.4635   -9.2208    0.0000 C   0  0  0  0  0  0  0  0  0  0  0  0
    4.2135  -10.5199    0.0000 O   0  0  0  0  0  0  0  0  0  0  0  0
    3.0000   -5.1962    0.0000 C   0  0  0  0  0  0  0  0  0  0  0  0
    4.4998   -5.1699    0.0000 C   0  0  0  0  0  0  0  0  0  0  0  0
    3.7500   -3.8971    0.0000 C   0  0  0  0  0  0  0  0  0  0  0  0
    3.0000   -2.5981    0.0000 C   0  0  0  0  0  0  0  0  0  0  0  0
    3.7500   -1.2990    0.0000 O   0  0  0  0  0  0  0  0  0  0  0  0
    1.5000   -2.5981    0.0000 C   0  0  0  0  0  0  0  0  0  0  0  0
  2  1  1  1
  2  3  1  0
  3  4  1  0
  4  5  1  0
  5  6  2  0
  5  7  1  0
  7  8  2  0
  8  9  1  0
  9 10  1  0
 11 10  1  6
 11 12  1  0
 12 13  1  1
 13 14  1  0
 14 15  1  0
 15 16  1  6
 15 17  1  0
 17 18  2  0
 17 19  1  0
 19 20  1  0
 15 21  1  0
 21 22  1  1
 21 23  1  0
 23 24  1  0
 24 25  1  1
 26 24  1  1
  8  2  1  0
 26  2  1  0
 26 11  1  0
 21 12  1  0
M  END
$$$$
439720
     RDKit          2D

 35 39  0  0  0  0  0  0  0  0999 V2000
    2.2500   -1.2990    0.0000 C   0  0  0  0  0  0  0  0  0  0  0  0
    0.7500   -1.2990    0.0000 C   0  0  0  0  0  0  0  0  0  0  0  0
    1.5000    0.0000    0.0000 C   0  0  0  0  0  0  0  0  0  0  0  0
    0.7500    1.2990    0.0000 C   0  0  0  0  0  0  0  0  0  0  0  0
   -0.7500    1.2990    0.0000 C   0  0  0  0  0  0  0  0  0  0  0  0
   -1.5000    2.5981    0.0000 O   0  0  0  0  0  0  0  0  0  0  0  0
   -1.5000    0.0000    0.0000 C   0  0  0  0  0  0  0  0  0  0  0  0
   -0.7500   -1.2990    0.0000 C   0  0  0  0  0  0  0  0  0  0  0  0
   -1.5000   -2.5981    0.0000 C   0  0  0  0  0  0  0  0  0  0  0  0
   -0.7500   -3.8971    0.0000 C   0  0  0  0  0  0  0  0  0  0  0  0
    0.7500   -3.8971    0.0000 C   0  0  0  0  0  0  0  0  0  0  0  0
    1.5000   -5.1962    0.0000 C   0  0  0  0  0  0  0  0  0  0  0  0
    1.0365   -6.6227    0.0000 C   0  0  0  0  0  0  0  0  0  0  0  0
    2.2500   -7.5044    0.0000 C   0  0  0  0  0  0  0  0  0  0  0  0
    3.4635   -6.6227    0.0000 C   0  0  0  0  0  0  0  0  0  0  0  0
    4.8980   -6.1842    0.0000 O   0  0  0  0  0  0  0  0  0  0  0  0
    4.2135   -7.9218    0.0000 C   0  0  0  0  0  0  0  0  0  0  0  0
    5.7135   -7.9218    0.0000 O   0  0  0  0  0  0  0  0  0  0  0  0
    3.4635   -9.2208    0.0000 C   0  0  0  0  0  0  0  0  0  0  0  0
    4.2135  -10.5199    0.0000 O   0  0  0  0  0  0  0  0  0  0  0  0
    3.4635  -11.8189    0.0000 C   0  0  0  0  0  0  0  0  0  0  0  0
    1.9635  -11.8189    0.0000 O   0  0  0  0  0  0  0  0  0  0  0  0
    4.2135  -13.1179    0.0000 C   0  0  0  0  0  0  0  0  0  0  0  0
    3.4635  -14.4170    0.0000 C   0  0  0  0  0  0  0  0  0  0  0  0
    4.2135  -15.7160    0.0000 C   0  0  0  0  0  0  0  0  0  0  0  0
    5.7053  -15.8728    0.0000 C   0  0  0  0  0  0  0  0  0  0  0  0
    6.0172  -17.3400    0.0000 C   0  0  0  0  0  0  0  0  0  0  0  0
    4.7181  -18.0900    0.0000 C   0  0  0  0  0  0  0  0  0  0  0  0
    3.6034  -17.0863    0.0000 C   0  0  0  0  0  0  0  0  0  0  0  0
    3.0000   -5.1962    0.0000 C   0  0  0  0  0  0  0  0  0  0  0  0
    4.4998   -5.1699    0.0000 C   0  0  0  0  0  0  0  0  0  0  0  0
    3.7500   -3.8971    0.0000 C   0  0  0  0  0  0  0  0  0  0  0  0
    3.0000   -2.5981    0.0000 C   0  0  0  0  0  0  0  0  0  0  0  0
    3.7500   -1.2990    0.0000 O   0  0  0  0  0  0  0  0  0  0  0  0
    1.5000   -2.5981    0.0000 C   0  0  0  0  0  0  0  0  0  0  0  0
  2  1  1  1
  2  3  1  0
  3  4  1  0
  4  5  1  0
  5  6  2  0
  5  7  1  0
  7  8  2  0
  8  9  1  0
  9 10  1  0
 11 10  1  6
 11 12  1  0
 12 13  1  1
 13 14  1  0
 14 15  1  0
 15 16  1  6
 15 17  1  0
 17 18  2  0
 17 19  1  0
 19 20  1  0
 20 21  1  0
 21 22  2  0
 21 23  1  0
 23 24  1  0
 24 25  1  0
 25 26  1  0
 26 27  1  0
 27 28  1  0
 28 29  1  0
 15 30  1  0
 30 31  1  1
 30 32  1  0
 32 33  1  0
 33 34  1  1
 35 33  1  1
  8  2  1  0
 35  2  1  0
 35 11  1  0
 30 12  1  0
 29 25  1  0
M  END
$$$$
421032
     RDKit          2D

 27 33  0  0  0  0  0  0  0  0999 V2000
    5.7180    2.4271    0.0000 C   0  0  0  0  0  0  0  0  0  0  0  0
    5.7180    3.9271    0.0000 C   0  0  0  0  0  0  0  0  0  0  0  0
    7.0170    3.1771    0.0000 C   0  0  0  0  0  0  0  0  0  0  0  0
    8.3161    3.9271    0.0000 C   0  0  0  0  0  0  0  0  0  0  0  0
    8.3161    5.4271    0.0000 C   0  0  0  0  0  0  0  0  0  0  0  0
    9.6151    6.1771    0.0000 O   0  0  0  0  0  0  0  0  0  0  0  0
    7.0170    6.1771    0.0000 C   0  0  0  0  0  0  0  0  0  0  0  0
    5.7180    5.4271    0.0000 C   0  0  0  0  0  0  0  0  0  0  0  0
    4.4190    6.1771    0.0000 C   0  0  0  0  0  0  0  0  0  0  0  0
    3.1199    6.9271    0.0000 C   0  0  0  0  0  0  0  0  0  0  0  0
    3.1199    5.4271    0.0000 C   0  0  0  0  0  0  0  0  0  0  0  0
    3.1199    3.9271    0.0000 C   0  0  0  0  0  0  0  0  0  0  0  0
    4.4190    3.1771    0.0000 C   0  0  0  0  0  0  0  0  0  0  0  0
    4.4190    1.6771    0.0000 C   0  0  0  0  0  0  0  0  0  0  0  0
    3.1199    0.9271    0.0000 C   0  0  0  0  0  0  0  0  0  0  0  0
    1.8209    1.6771    0.0000 C   0  0  0  0  0  0  0  0  0  0  0  0
    3.0344    2.5587    0.0000 C   0  0  0  0  0  0  0  0  0  0  0  0
    1.8209    3.1771    0.0000 C   0  0  0  0  0  0  0  0  0  0  0  0
    0.3943    3.6406    0.0000 C   0  0  0  0  0  0  0  0  0  0  0  0
   -1.0975    3.7974    0.0000 C   0  0  0  0  0  0  0  0  0  0  0  0
   -0.4874    2.4271    0.0000 C   0  0  0  0  0  0  0  0  0  0  0  0
    0.3943    1.2135    0.0000 C   0  0  0  0  0  0  0  0  0  0  0  0
    1.2760    0.0000    0.0000 C   0  0  0  0  0  0  0  0  0  0  0  0
    0.3943   -1.2135    0.0000 C   0  0  0  0  0  0  0  0  0  0  0  0
   -1.0323   -0.7500    0.0000 C   0  0  0  0  0  0  0  0  0  0  0  0
   -2.2458   -1.6317    0.0000 O   0  0  0  0  0  0  0  0  0  0  0  0
   -1.0323    0.7500    0.0000 O   0  0  0  0  0  0  0  0  0  0  0  0
  2  1  1  1
  2  3  1  0
  3  4  1  0
  4  5  1  0
  5  6  2  0
  5  7  1  0
  7  8  2  0
  8  9  1  0
  9 10  1  1
 11 10  1  1
 12 11  1  6
 12 13  1  0
 13 14  1  1
 14 15  1  0
 15 16  1  0
 16 17  1  1
 16 18  1  0
 18 19  1  1
 19 20  1  1
 21 20  1  1
 21 22  1  0
 22 23  1  6
 23 24  1  0
 24 25  1  0
 25 26  2  0
 25 27  1  0
  8  2  1  0
 13  2  1  0
 11  9  1  0
 18 12  1  0
 22 16  1  0
 21 19  1  0
 27 22  1  0
M  END
$$$$
675813
     RDKit          2D

 23 26  0  0  0  0  0  0  0  0999 V2000
    4.4998   -5.1699    0.0000 C   0  0  0  0  0  0  0  0  0  0  0  0
    3.0000   -5.1962    0.0000 C   0  0  0  0  0  0  0  0  0  0  0  0
    3.7500   -3.8971    0.0000 C   0  0  0  0  0  0  0  0  0  0  0  0
    3.0000   -2.5981    0.0000 C   0  0  0  0  0  0  0  0  0  0  0  0
    1.5000   -2.5981    0.0000 C   0  0  0  0  0  0  0  0  0  0  0  0
    0.7500   -1.2990    0.0000 C   0  0  0  0  0  0  0  0  0  0  0  0
    1.5000    0.0000    0.0000 C   0  0  0  0  0  0  0  0  0  0  0  0
    0.7500    1.2990    0.0000 C   0  0  0  0  0  0  0  0  0  0  0  0
   -0.7500    1.2990    0.0000 C   0  0  0  0  0  0  0  0  0  0  0  0
   -1.5000    2.5981    0.0000 O   0  0  0  0  0  0  0  0  0  0  0  0
   -1.5000    0.0000    0.0000 C   0  0  0  0  0  0  0  0  0  0  0  0
   -0.7500   -1.2990    0.0000 C   0  0  0  0  0  0  0  0  0  0  0  0
   -1.5000   -2.5981    0.0000 C   0  0  0  0  0  0  0  0  0  0  0  0
   -0.7500   -3.8971    0.0000 C   0  0  0  0  0  0  0  0  0  0  0  0
    0.7500   -3.8971    0.0000 C   0  0  0  0  0  0  0  0  0  0  0  0
    1.5000   -5.1962    0.0000 C   0  0  0  0  0  0  0  0  0  0  0  0
    1.0365   -6.6227    0.0000 C   0  0  0  0  0  0  0  0  0  0  0  0
    2.2500   -7.5044    0.0000 C   0  0  0  0  0  0  0  0  0  0  0  0
    3.4635   -6.6227    0.0000 C   0  0  0  0  0  0  0  0  0  0  0  0
    4.8980   -6.1842    0.0000 O   0  0  0  0  0  0  0  0  0  0  0  0
    4.2135   -7.9218    0.0000 C   0  0  0  0  0  0  0  0  0  0  0  0
    3.4635   -9.2208    0.0000 C   0  0  0  0  0  0  0  0  0  0  0  0
    2.7135  -10.5199    0.0000 N   0  0  0  0  0  0  0  0  0  0  0  0
  2  1  1  1
  2  3  1  0
  3  4  1  0
  4  5  1  0
  5  6  2  0
  6  7  1  0
  7  8  1  0
  8  9  1  0
  9 10  2  0
  9 11  1  0
 11 12  2  0
 12 13  1  0
 13 14  1  0
 15 14  1  6
 15 16  1  0
 16 17  1  1
 17 18  1  0
 18 19  1  0
 19 20  1  1
 19 21  1  0
 21 22  1  0
 22 23  3  0
 16  2  1  0
 19  2  1  0
 15  5  1  0
 12  6  1  0
M  END
$$$$
674325
     RDKit          2D

 22 25  0  0  0  0  0  0  0  0999 V2000
   -4.4918   -5.3529    0.0000 C   0  0  0  0  0  0  0  0  0  0  0  0
   -3.0000   -5.1962    0.0000 C   0  0  0  0  0  0  0  0  0  0  0  0
   -3.7500   -3.8971    0.0000 C   0  0  0  0  0  0  0  0  0  0  0  0
   -3.0000   -2.5981    0.0000 C   0  0  0  0  0  0  0  0  0  0  0  0
   -1.5000   -2.5981    0.0000 C   0  0  0  0  0  0  0  0  0  0  0  0
   -0.7500   -3.8971    0.0000 C   0  0  0  0  0  0  0  0  0  0  0  0
    0.7500   -3.8971    0.0000 C   0  0  0  0  0  0  0  0  0  0  0  0
    1.5000   -2.5981    0.0000 C   0  0  0  0  0  0  0  0  0  0  0  0
    3.0000   -2.5981    0.0000 C   0  0  0  0  0  0  0  0  0  0  0  0
    0.7500   -1.2990    0.0000 C   0  0  0  0  0  0  0  0  0  0  0  0
    1.5000    0.0000    0.0000 C   0  0  0  0  0  0  0  0  0  0  0  0
    0.7500    1.2990    0.0000 C   0  0  0  0  0  0  0  0  0  0  0  0
    1.5000    2.5981    0.0000 O   0  0  0  0  0  0  0  0  0  0  0  0
   -0.7500    1.2990    0.0000 C   0  0  0  0  0  0  0  0  0  0  0  0
   -1.5000    0.0000    0.0000 C   0  0  0  0  0  0  0  0  0  0  0  0
   -0.7500   -1.2990    0.0000 C   0  0  0  0  0  0  0  0  0  0  0  0
   -2.2500   -1.2990    0.0000 C   0  0  0  0  0  0  0  0  0  0  0  0
   -1.5000   -5.1962    0.0000 C   0  0  0  0  0  0  0  0  0  0  0  0
   -1.0365   -6.6227    0.0000 C   0  0  0  0  0  0  0  0  0  0  0  0
   -2.2500   -7.5044    0.0000 C   0  0  0  0  0  0  0  0  0  0  0  0
   -3.4635   -6.6227    0.0000 C   0  0  0  0  0  0  0  0  0  0  0  0
   -4.8901   -7.0863    0.0000 O   0  0  0  0  0  0  0  0  0  0  0  0
  2  1  1  6
  2  3  1  0
  3  4  1  0
  5  4  1  6
  5  6  1  0
  6  7  1  1
  7  8  1  0
  8  9  2  0
  8 10  1  0
 10 11  2  0
 11 12  1  0
 12 13  2  0
 12 14  1  0
 14 15  2  0
 15 16  1  0
 16 17  1  6
  6 18  1  0
 18 19  1  6
 19 20  1  0
 20 21  1  0
 21 22  2  0
 18  2  1  0
 21  2  1  0
 16  5  1  0
 16 10  1  0
M  END
$$$$
328153
     RDKit          2D

 22 25  0  0  0  0  0  0  0  0999 V2000
    4.4998   -5.1699    0.0000 C   0  0  0  0  0  0  0  0  0  0  0  0
    3.0000   -5.1962    0.0000 C   0  0  0  0  0  0  0  0  0  0  0  0
    3.7500   -3.8971    0.0000 C   0  0  0  0  0  0  0  0  0  0  0  0
    3.0000   -2.5981    0.0000 C   0  0  0  0  0  0  0  0  0  0  0  0
    1.5000   -2.5981    0.0000 C   0  0  0  0  0  0  0  0  0  0  0  0
    0.7500   -3.8971    0.0000 C   0  0  0  0  0  0  0  0  0  0  0  0
   -0.7500   -3.8971    0.0000 C   0  0  0  0  0  0  0  0  0  0  0  0
   -1.5000   -2.5981    0.0000 C   0  0  0  0  0  0  0  0  0  0  0  0
   -0.7500   -1.2990    0.0000 C   0  0  0  0  0  0  0  0  0  0  0  0
    0.7500   -1.2990    0.0000 C   0  0  0  0  0  0  0  0  0  0  0  0
    1.5000    0.0000    0.0000 C   0  0  0  0  0  0  0  0  0  0  0  0
    0.7500    1.2990    0.0000 C   0  0  0  0  0  0  0  0  0  0  0  0
   -0.7500    1.2990    0.0000 C   0  0  0  0  0  0  0  0  0  0  0  0
   -1.5000    2.5981    0.0000 O   0  0  0  0  0  0  0  0  0  0  0  0
   -1.5000    0.0000    0.0000 C   0  0  0  0  0  0  0  0  0  0  0  0
    1.5000   -5.1962    0.0000 C   0  0  0  0  0  0  0  0  0  0  0  0
    1.0365   -6.6227    0.0000 C   0  0  0  0  0  0  0  0  0  0  0  0
    2.2500   -7.5044    0.0000 C   0  0  0  0  0  0  0  0  0  0  0  0
    3.4635   -6.6227    0.0000 C   0  0  0  0  0  0  0  0  0  0  0  0
    4.8980   -6.1842    0.0000 O   0  0  0  0  0  0  0  0  0  0  0  0
    4.2135   -7.9218    0.0000 C   0  0  0  0  0  0  0  0  0  0  0  0
    4.9635   -9.2208    0.0000 C   0  0  0  0  0  0  0  0  0  0  0  0
  2  1  1  1
  2  3  1  0
  3  4  1  0
  5  4  1  1
  5  6  1  0
  6  7  1  6
  7  8  1  0
  8  9  1  0
  9 10  2  0
 10 11  1  0
 11 12  1  0
 12 13  1  0
 13 14  2  0
 13 15  1  0
  6 16  1  0
 16 17  1  1
 17 18  1  0
 18 19  1  0
 19 20  1  1
 19 21  1  0
 21 22  3  0
 16  2  1  0
 19  2  1  0
 10  5  1  0
 15  9  1  0
M  END
$$$$
453121
     RDKit          2D

 22 25  0  0  0  0  0  0  0  0999 V2000
   -4.5000   -5.1962    0.0000 C   0  0  0  0  0  0  0  0  0  0  0  0
   -3.0000   -5.1962    0.0000 C   0  0  0  0  0  0  0  0  0  0  0  0
   -3.7500   -3.8971    0.0000 C   0  0  0  0  0  0  0  0  0  0  0  0
   -3.0000   -2.5981    0.0000 C   0  0  0  0  0  0  0  0  0  0  0  0
   -1.5000   -2.5981    0.0000 C   0  0  0  0  0  0  0  0  0  0  0  0
   -0.7500   -3.8971    0.0000 C   0  0  0  0  0  0  0  0  0  0  0  0
    0.7500   -3.8971    0.0000 C   0  0  0  0  0  0  0  0  0  0  0  0
    1.5000   -2.5981    0.0000 C   0  0  0  0  0  0  0  0  0  0  0  0
    0.7500   -1.2990    0.0000 C   0  0  0  0  0  0  0  0  0  0  0  0
    1.5000    0.0000    0.0000 C   0  0  0  0  0  0  0  0  0  0  0  0
    0.7500    1.2990    0.0000 C   0  0  0  0  0  0  0  0  0  0  0  0
    1.5000    2.5981    0.0000 O   0  0  0  0  0  0  0  0  0  0  0  0
   -0.7500    1.2990    0.0000 C   0  0  0  0  0  0  0  0  0  0  0  0
   -1.5000    0.0000    0.0000 C   0  0  0  0  0  0  0  0  0  0  0  0
   -0.7500   -1.2990    0.0000 C   0  0  0  0  0  0  0  0  0  0  0  0
   -2.2500   -1.2990    0.0000 C   0  0  0  0  0  0  0  0  0  0  0  0
   -1.5000   -5.1962    0.0000 C   0  0  0  0  0  0  0  0  0  0  0  0
   -0.7500   -6.4952    0.0000 C   0  0  0  0  0  0  0  0  0  0  0  0
   -1.5000   -7.7942    0.0000 C   0  0  0  0  0  0  0  0  0  0  0  0
   -3.0000   -7.7942    0.0000 C   0  0  0  0  0  0  0  0  0  0  0  0
   -3.7500   -9.0933    0.0000 O   0  0  0  0  0  0  0  0  0  0  0  0
   -3.7500   -6.4952    0.0000 O   0  0  0  0  0  0  0  0  0  0  0  0
  2  1  1  6
  2  3  1  0
  3  4  1  0
  5  4  1  6
  5  6  1  0
  6  7  1  1
  7  8  1  0
  8  9  1  0
  9 10  2  0
 10 11  1  0
 11 12  2  0
 11 13  1  0
 13 14  2  0
 14 15  1  0
 15 16  1  6
  6 17  1  0
 17 18  1  6
 18 19  1  0
 19 20  1  0
 20 21  2  0
 20 22  1  0
 17  2  1  0
 22  2  1  0
 15  5  1  0
 15  9  1  0
M  END
$$$$
187962
     RDKit          2D

 22 25  0  0  0  0  0  0  0  0999 V2000
   -4.4998   -5.1699    0.0000 C   0  0  0  0  0  0  0  0  0  0  0  0
   -3.0000   -5.1962    0.0000 C   0  0  0  0  0  0  0  0  0  0  0  0
   -3.7500   -3.8971    0.0000 C   0  0  0  0  0  0  0  0  0  0  0  0
   -3.0000   -2.5981    0.0000 C   0  0  0  0  0  0  0  0  0  0  0  0
   -1.5000   -2.5981    0.0000 C   0  0  0  0  0  0  0  0  0  0  0  0
   -0.7500   -3.8971    0.0000 C   0  0  0  0  0  0  0  0  0  0  0  0
    0.7500   -3.8971    0.0000 C   0  0  0  0  0  0  0  0  0  0  0  0
    1.5000   -2.5981    0.0000 C   0  0  0  0  0  0  0  0  0  0  0  0
    0.7500   -1.2990    0.0000 C   0  0  0  0  0  0  0  0  0  0  0  0
    1.5000    0.0000    0.0000 C   0  0  0  0  0  0  0  0  0  0  0  0
    0.7500    1.2990    0.0000 C   0  0  0  0  0  0  0  0  0  0  0  0
    1.5000    2.5981    0.0000 O   0  0  0  0  0  0  0  0  0  0  0  0
   -0.7500    1.2990    0.0000 C   0  0  0  0  0  0  0  0  0  0  0  0
   -1.5000    0.0000    0.0000 C   0  0  0  0  0  0  0  0  0  0  0  0
   -0.7500   -1.2990    0.0000 C   0  0  0  0  0  0  0  0  0  0  0  0
   -1.5000   -5.1962    0.0000 C   0  0  0  0  0  0  0  0  0  0  0  0
   -1.0365   -6.6227    0.0000 C   0  0  0  0  0  0  0  0  0  0  0  0
   -2.2500   -7.5044    0.0000 C   0  0  0  0  0  0  0  0  0  0  0  0
   -3.4635   -6.6227    0.0000 C   0  0  0  0  0  0  0  0  0  0  0  0
   -4.8980   -6.1842    0.0000 O   0  0  0  0  0  0  0  0  0  0  0  0
   -4.2135   -7.9218    0.0000 C   0  0  0  0  0  0  0  0  0  0  0  0
   -4.9635   -9.2208    0.0000 C   0  0  0  0  0  0  0  0  0  0  0  0
  2  1  1  6
  2  3  1  0
  3  4  1  0
  5  4  1  6
  5  6  1  0
  6  7  1  1
  7  8  1  0
  8  9  1  0
  9 10  2  0
 10 11  1  0
 11 12  2  0
 11 13  1  0
 13 14  1  0
 15 14  1  1
  6 16  1  0
 16 17  1  6
 17 18  1  0
 18 19  1  0
 19 20  1  6
 19 21  1  0
 21 22  3  0
 16  2  1  0
 19  2  1  0
 15  5  1  0
 15  9  1  0
M  END
$$$$
27626
     RDKit          2D

 20 23  0  0  0  0  0  0  0  0999 V2000
   -4.4918   -5.3529    0.0000 C   0  0  0  0  0  0  0  0  0  0  0  0
   -3.0000   -5.1962    0.0000 C   0  0  0  0  0  0  0  0  0  0  0  0
   -3.7500   -3.8971    0.0000 C   0  0  0  0  0  0  0  0  0  0  0  0
   -3.0000   -2.5981    0.0000 C   0  0  0  0  0  0  0  0  0  0  0  0
   -1.5000   -2.5981    0.0000 C   0  0  0  0  0  0  0  0  0  0  0  0
   -0.7500   -3.8971    0.0000 C   0  0  0  0  0  0  0  0  0  0  0  0
    0.7500   -3.8971    0.0000 C   0  0  0  0  0  0  0  0  0  0  0  0
    1.5000   -2.5981    0.0000 C   0  0  0  0  0  0  0  0  0  0  0  0
    0.7500   -1.2990    0.0000 C   0  0  0  0  0  0  0  0  0  0  0  0
    1.5000    0.0000    0.0000 C   0  0  0  0  0  0  0  0  0  0  0  0
    0.7500    1.2990    0.0000 C   0  0  0  0  0  0  0  0  0  0  0  0
    1.5000    2.5981    0.0000 O   0  0  0  0  0  0  0  0  0  0  0  0
   -0.7500    1.2990    0.0000 C   0  0  0  0  0  0  0  0  0  0  0  0
   -1.5000    0.0000    0.0000 C   0  0  0  0  0  0  0  0  0  0  0  0
   -0.7500   -1.2990    0.0000 C   0  0  0  0  0  0  0  0  0  0  0  0
   -1.5000   -5.1962    0.0000 C   0  0  0  0  0  0  0  0  0  0  0  0
   -1.0365   -6.6227    0.0000 C   0  0  0  0  0  0  0  0  0  0  0  0
   -2.2500   -7.5044    0.0000 C   0  0  0  0  0  0  0  0  0  0  0  0
   -3.4635   -6.6227    0.0000 C   0  0  0  0  0  0  0  0  0  0  0  0
   -4.8901   -7.0863    0.0000 O   0  0  0  0  0  0  0  0  0  0  0  0
  2  1  1  6
  2  3  1  0
  3  4  1  0
  5  4  1  6
  5  6  1  0
  6  7  1  1
  7  8  1  0
  8  9  1  0
  9 10  2  0
 10 11  1  0
 11 12  1  0
 11 13  2  0
 13 14  1  0
 14 15  2  0
  6 16  1  0
 16 17  1  6
 17 18  1  0
 18 19  1  0
 19 20  1  6
 16  2  1  0
 19  2  1  0
 15  5  1  0
 15  9  1  0
M  END
$$$$
31241
     RDKit          2D

 22 25  0  0  0  0  0  0  0  0999 V2000
   -4.4998   -5.1699    0.0000 C   0  0  0  0  0  0  0  0  0  0  0  0
   -3.0000   -5.1962    0.0000 C   0  0  0  0  0  0  0  0  0  0  0  0
   -3.7500   -3.8971    0.0000 C   0  0  0  0  0  0  0  0  0  0  0  0
   -3.0000   -2.5981    0.0000 C   0  0  0  0  0  0  0  0  0  0  0  0
   -1.5000   -2.5981    0.0000 C   0  0  0  0  0  0  0  0  0  0  0  0
   -0.7500   -3.8971    0.0000 C   0  0  0  0  0  0  0  0  0  0  0  0
    0.7500   -3.8971    0.0000 C   0  0  0  0  0  0  0  0  0  0  0  0
    1.5000   -2.5981    0.0000 C   0  0  0  0  0  0  0  0  0  0  0  0
    0.7500   -1.2990    0.0000 C   0  0  0  0  0  0  0  0  0  0  0  0
    1.5000    0.0000    0.0000 C   0  0  0  0  0  0  0  0  0  0  0  0
    0.7500    1.2990    0.0000 C   0  0  0  0  0  0  0  0  0  0  0  0
    1.5000    2.5981    0.0000 O   0  0  0  0  0  0  0  0  0  0  0  0
   -0.7500    1.2990    0.0000 C   0  0  0  0  0  0  0  0  0  0  0  0
   -1.5000    0.0000    0.0000 C   0  0  0  0  0  0  0  0  0  0  0  0
   -0.7500   -1.2990    0.0000 C   0  0  0  0  0  0  0  0  0  0  0  0
   -1.5000   -5.1962    0.0000 C   0  0  0  0  0  0  0  0  0  0  0  0
   -1.0365   -6.6227    0.0000 C   0  0  0  0  0  0  0  0  0  0  0  0
   -2.2500   -7.5044    0.0000 C   0  0  0  0  0  0  0  0  0  0  0  0
   -3.4635   -6.6227    0.0000 C   0  0  0  0  0  0  0  0  0  0  0  0
   -4.8980   -6.1842    0.0000 O   0  0  0  0  0  0  0  0  0  0  0  0
   -4.2135   -7.9218    0.0000 C   0  0  0  0  0  0  0  0  0  0  0  0
   -4.9635   -9.2208    0.0000 C   0  0  0  0  0  0  0  0  0  0  0  0
  2  1  1  6
  2  3  1  0
  3  4  1  0
  5  4  1  6
  5  6  1  0
  6  7  1  1
  7  8  1  0
  8  9  1  0
  9 10  2  0
 10 11  1  0
 11 12  1  0
 11 13  2  0
 13 14  1  0
 14 15  2  0
  6 16  1  0
 16 17  1  6
 17 18  1  0
 18 19  1  0
 19 20  1  6
 19 21  1  0
 21 22  3  0
 16  2  1  0
 19  2  1  0
 15  5  1  0
 15  9  1  0
M  END
$$$$
581858
     RDKit          2D

 33 36  0  0  0  0  0  0  0  0999 V2000
   -4.4918   -5.3529    0.0000 C   0  0  0  0  0  0  0  0  0  0  0  0
   -3.0000   -5.1962    0.0000 C   0  0  0  0  0  0  0  0  0  0  0  0
   -3.7500   -3.8971    0.0000 C   0  0  0  0  0  0  0  0  0  0  0  0
   -3.0000   -2.5981    0.0000 C   0  0  0  0  0  0  0  0  0  0  0  0
   -1.5000   -2.5981    0.0000 C   0  0  0  0  0  0  0  0  0  0  0  0
   -0.7500   -3.8971    0.0000 C   0  0  0  0  0  0  0  0  0  0  0  0
    0.7500   -3.8971    0.0000 C   0  0  0  0  0  0  0  0  0  0  0  0
    1.5000   -2.5981    0.0000 C   0  0  0  0  0  0  0  0  0  0  0  0
    0.7500   -1.2990    0.0000 C   0  0  0  0  0  0  0  0  0  0  0  0
    1.5000    0.0000    0.0000 C   0  0  0  0  0  0  0  0  0  0  0  0
    0.7500    1.2990    0.0000 C   0  0  0  0  0  0  0  0  0  0  0  0
    1.5000    2.5981    0.0000 O   0  0  0  0  0  0  0  0  0  0  0  0
    3.0000    2.5981    0.0000 C   0  0  0  0  0  0  0  0  0  0  0  0
    3.7500    1.2990    0.0000 O   0  0  0  0  0  0  0  0  0  0  0  0
    3.7500    3.8971    0.0000 N   0  0  0  0  0  0  0  0  0  0  0  0
    5.2500    3.8971    0.0000 C   0  0  0  0  0  0  0  0  0  0  0  0
    6.0000    5.1962    0.0000 C   0  0  0  0  0  0  0  0  0  0  0  0
    7.5000    5.1962    0.0000 Cl  0  0  0  0  0  0  0  0  0  0  0  0
    3.0000    5.1962    0.0000 C   0  0  0  0  0  0  0  0  0  0  0  0
    3.7500    6.4952    0.0000 C   0  0  0  0  0  0  0  0  0  0  0  0
    3.0000    7.7942    0.0000 Cl  0  0  0  0  0  0  0  0  0  0  0  0
   -0.7500    1.2990    0.0000 C   0  0  0  0  0  0  0  0  0  0  0  0
   -1.5000    0.0000    0.0000 C   0  0  0  0  0  0  0  0  0  0  0  0
   -0.7500   -1.2990    0.0000 C   0  0  0  0  0  0  0  0  0  0  0  0
   -1.5000   -5.1962    0.0000 C   0  0  0  0  0  0  0  0  0  0  0  0
   -1.0365   -6.6227    0.0000 C   0  0  0  0  0  0  0  0  0  0  0  0
   -2.2500   -7.5044    0.0000 C   0  0  0  0  0  0  0  0  0  0  0  0
   -3.4635   -6.6227    0.0000 C   0  0  0  0  0  0  0  0  0  0  0  0
   -4.8901   -7.0863    0.0000 O   0  0  0  0  0  0  0  0  0  0  0  0
   -5.2020   -8.5535    0.0000 P   0  0  0  0  0  0  0  0  0  0  0  0
   -6.6692   -8.2416    0.0000 O   0  0  0  0  0  0  0  0  0  0  0  0
   -3.7348   -8.8654    0.0000 O   0  0  0  0  0  0  0  0  0  0  0  0
   -5.5138  -10.0207    0.0000 O   0  0  0  0  0  0  0  0  0  0  0  0
  2  1  1  6
  2  3  1  0
  3  4  1  0
  5  4  1  6
  5  6  1  0
  6  7  1  1
  7  8  1  0
  8  9  1  0
  9 10  2  0
 10 11  1  0
 11 12  1  0
 12 13  1  0
 13 14  2  0
 13 15  1  0
 15 16  1  0
 16 17  1  0
 17 18  1  0
 15 19  1  0
 19 20  1  0
 20 21  1  0
 11 22  2  0
 22 23  1  0
 23 24  2  0
  6 25  1  0
 25 26  1  6
 26 27  1  0
 27 28  1  0
 28 29  1  6
 29 30  1  0
 30 31  2  0
 30 32  1  0
 30 33  1  0
 25  2  1  0
 28  2  1  0
 24  5  1  0
 24  9  1  0
M  END
$$$$
675116
     RDKit          2D

 27 31  0  0  0  0  0  0  0  0999 V2000
   -4.4998   -5.1699    0.0000 C   0  0  0  0  0  0  0  0  0  0  0  0
   -3.0000   -5.1962    0.0000 C   0  0  0  0  0  0  0  0  0  0  0  0
   -3.7500   -3.8971    0.0000 C   0  0  0  0  0  0  0  0  0  0  0  0
   -3.0000   -2.5981    0.0000 C   0  0  0  0  0  0  0  0  0  0  0  0
   -1.5000   -2.5981    0.0000 C   0  0  0  0  0  0  0  0  0  0  0  0
   -0.7500   -3.8971    0.0000 C   0  0  0  0  0  0  0  0  0  0  0  0
    0.7500   -3.8971    0.0000 C   0  0  0  0  0  0  0  0  0  0  0  0
    1.5000   -2.5981    0.0000 C   0  0  0  0  0  0  0  0  0  0  0  0
    0.7500   -1.2990    0.0000 C   0  0  0  0  0  0  0  0  0  0  0  0
    1.5000    0.0000    0.0000 C   0  0  0  0  0  0  0  0  0  0  0  0
    0.7500    1.2990    0.0000 C   0  0  0  0  0  0  0  0  0  0  0  0
    1.5000    2.5981    0.0000 O   0  0  0  0  0  0  0  0  0  0  0  0
    3.0000    2.5981    0.0000 C   0  0  0  0  0  0  0  0  0  0  0  0
    3.8817    3.8116    0.0000 C   0  0  0  0  0  0  0  0  0  0  0  0
    5.3083    3.3481    0.0000 C   0  0  0  0  0  0  0  0  0  0  0  0
    5.3083    1.8481    0.0000 C   0  0  0  0  0  0  0  0  0  0  0  0
    3.8817    1.3846    0.0000 C   0  0  0  0  0  0  0  0  0  0  0  0
   -0.7500    1.2990    0.0000 C   0  0  0  0  0  0  0  0  0  0  0  0
   -1.5000    0.0000    0.0000 C   0  0  0  0  0  0  0  0  0  0  0  0
   -0.7500   -1.2990    0.0000 C   0  0  0  0  0  0  0  0  0  0  0  0
   -1.5000   -5.1962    0.0000 C   0  0  0  0  0  0  0  0  0  0  0  0
   -1.0365   -6.6227    0.0000 C   0  0  0  0  0  0  0  0  0  0  0  0
   -2.2500   -7.5044    0.0000 C   0  0  0  0  0  0  0  0  0  0  0  0
   -3.4635   -6.6227    0.0000 C   0  0  0  0  0  0  0  0  0  0  0  0
   -4.8980   -6.1842    0.0000 O   0  0  0  0  0  0  0  0  0  0  0  0
   -4.2135   -7.9218    0.0000 C   0  0  0  0  0  0  0  0  0  0  0  0
   -4.9635   -9.2208    0.0000 C   0  0  0  0  0  0  0  0  0  0  0  0
  2  1  1  6
  2  3  1  0
  3  4  1  0
  5  4  1  6
  5  6  1  0
  6  7  1  1
  7  8  1  0
  8  9  1  0
  9 10  2  0
 10 11  1  0
 11 12  1  0
 12 13  1  0
 13 14  1  0
 14 15  1  0
 15 16  1  0
 16 17  1  0
 11 18  2  0
 18 19  1  0
 19 20  2  0
  6 21  1  0
 21 22  1  6
 22 23  1  0
 23 24  1  0
 24 25  1  6
 24 26  1  0
 26 27  3  0
 21  2  1  0
 24  2  1  0
 20  5  1  0
 20  9  1  0
 17 13  1  0
M  END
$$$$
485955
     RDKit          2D

 24 27  0  0  0  0  0  0  0  0999 V2000
   -4.4918   -5.3529    0.0000 C   0  0  0  0  0  0  0  0  0  0  0  0
   -3.0000   -5.1962    0.0000 C   0  0  0  0  0  0  0  0  0  0  0  0
   -3.7500   -3.8971    0.0000 C   0  0  0  0  0  0  0  0  0  0  0  0
   -3.0000   -2.5981    0.0000 C   0  0  0  0  0  0  0  0  0  0  0  0
   -1.5000   -2.5981    0.0000 C   0  0  0  0  0  0  0  0  0  0  0  0
   -0.7500   -3.8971    0.0000 C   0  0  0  0  0  0  0  0  0  0  0  0
    0.7500   -3.8971    0.0000 C   0  0  0  0  0  0  0  0  0  0  0  0
    1.5000   -2.5981    0.0000 C   0  0  0  0  0  0  0  0  0  0  0  0
    0.7500   -1.2990    0.0000 C   0  0  0  0  0  0  0  0  0  0  0  0
    1.5000    0.0000    0.0000 C   0  0  0  0  0  0  0  0  0  0  0  0
    0.7500    1.2990    0.0000 C   0  0  0  0  0  0  0  0  0  0  0  0
    1.5000    2.5981    0.0000 O   0  0  0  0  0  0  0  0  0  0  0  0
    3.0000    2.5981    0.0000 S   0  0  0  0  0  0  0  0  0  0  0  0
    3.0000    1.0981    0.0000 O   0  0  0  0  0  0  0  0  0  0  0  0
    3.0000    4.0981    0.0000 O   0  0  0  0  0  0  0  0  0  0  0  0
    4.5000    2.5981    0.0000 O   0  0  0  0  0  0  0  0  0  0  0  0
   -0.7500    1.2990    0.0000 C   0  0  0  0  0  0  0  0  0  0  0  0
   -1.5000    0.0000    0.0000 C   0  0  0  0  0  0  0  0  0  0  0  0
   -0.7500   -1.2990    0.0000 C   0  0  0  0  0  0  0  0  0  0  0  0
   -1.5000   -5.1962    0.0000 C   0  0  0  0  0  0  0  0  0  0  0  0
   -1.0365   -6.6227    0.0000 C   0  0  0  0  0  0  0  0  0  0  0  0
   -2.2500   -7.5044    0.0000 C   0  0  0  0  0  0  0  0  0  0  0  0
   -3.4635   -6.6227    0.0000 C   0  0  0  0  0  0  0  0  0  0  0  0
   -4.8901   -7.0863    0.0000 O   0  0  0  0  0  0  0  0  0  0  0  0
  2  1  1  6
  2  3  1  0
  3  4  1  0
  5  4  1  6
  5  6  1  0
  6  7  1  1
  7  8  1  0
  8  9  1  0
  9 10  2  0
 10 11  1  0
 11 12  1  0
 12 13  1  0
 13 14  2  0
 13 15  2  0
 13 16  1  0
 11 17  2  0
 17 18  1  0
 18 19  2  0
  6 20  1  0
 20 21  1  6
 21 22  1  0
 22 23  1  0
 23 24  2  0
 20  2  1  0
 23  2  1  0
 19  5  1  0
 19  9  1  0
M  END
$$$$
674931
     RDKit          2D

 30 33  0  0  0  0  0  0  0  0999 V2000
   -4.4918   -5.3529    0.0000 C   0  0  0  0  0  0  0  0  0  0  0  0
   -3.0000   -5.1962    0.0000 C   0  0  0  0  0  0  0  0  0  0  0  0
   -3.7500   -3.8971    0.0000 C   0  0  0  0  0  0  0  0  0  0  0  0
   -3.0000   -2.5981    0.0000 C   0  0  0  0  0  0  0  0  0  0  0  0
   -1.5000   -2.5981    0.0000 C   0  0  0  0  0  0  0  0  0  0  0  0
   -0.7500   -3.8971    0.0000 C   0  0  0  0  0  0  0  0  0  0  0  0
    0.7500   -3.8971    0.0000 C   0  0  0  0  0  0  0  0  0  0  0  0
    1.5000   -2.5981    0.0000 C   0  0  0  0  0  0  0  0  0  0  0  0
    0.7500   -1.2990    0.0000 C   0  0  0  0  0  0  0  0  0  0  0  0
    1.5000    0.0000    0.0000 C   0  0  0  0  0  0  0  0  0  0  0  0
    0.7500    1.2990    0.0000 C   0  0  0  0  0  0  0  0  0  0  0  0
    1.5000    2.5981    0.0000 O   0  0  0  0  0  0  0  0  0  0  0  0
    3.0000    2.5981    0.0000 S   0  0  0  0  0  0  0  0  0  0  0  0
    3.0000    1.0981    0.0000 O   0  0  0  0  0  0  0  0  0  0  0  0
    3.0000    4.0981    0.0000 O   0  0  0  0  0  0  0  0  0  0  0  0
    4.5000    2.5981    0.0000 O   0  0  0  0  0  0  0  0  0  0  0  0
   -0.7500    1.2990    0.0000 C   0  0  0  0  0  0  0  0  0  0  0  0
   -1.5000    0.0000    0.0000 C   0  0  0  0  0  0  0  0  0  0  0  0
   -0.7500   -1.2990    0.0000 C   0  0  0  0  0  0  0  0  0  0  0  0
   -1.5000   -5.1962    0.0000 C   0  0  0  0  0  0  0  0  0  0  0  0
   -1.0365   -6.6227    0.0000 C   0  0  0  0  0  0  0  0  0  0  0  0
   -2.2500   -7.5044    0.0000 C   0  0  0  0  0  0  0  0  0  0  0  0
   -3.4635   -6.6227    0.0000 C   0  0  0  0  0  0  0  0  0  0  0  0
   -4.8901   -7.0863    0.0000 O   0  0  0  0  0  0  0  0  0  0  0  0
    8.5000    0.0000    0.0000 C   0  0  0  0  0  0  0  0  0  0  0  0
    7.7500   -1.2990    0.0000 C   0  0  0  0  0  0  0  0  0  0  0  0
    6.2500   -1.2990    0.0000 N   0  0  0  0  0  0  0  0  0  0  0  0
    5.5000    0.0000    0.0000 C   0  0  0  0  0  0  0  0  0  0  0  0
    6.2500    1.2990    0.0000 C   0  0  0  0  0  0  0  0  0  0  0  0
    7.7500    1.2990    0.0000 N   0  0  0  0  0  0  0  0  0  0  0  0
  2  1  1  6
  2  3  1  0
  3  4  1  0
  5  4  1  6
  5  6  1  0
  6  7  1  1
  7  8  1  0
  8  9  1  0
  9 10  2  0
 10 11  1  0
 11 12  1  0
 12 13  1  0
 13 14  2  0
 13 15  2  0
 13 16  1  0
 11 17  2  0
 17 18  1  0
 18 19  2  0
  6 20  1  0
 20 21  1  6
 21 22  1  0
 22 23  1  0
 23 24  2  0
 25 26  1  0
 26 27  1  0
 27 28  1  0
 28 29  1  0
 29 30  1  0
 20  2  1  0
 23  2  1  0
 19  5  1  0
 19  9  1  0
 30 25  1  0
M  END
$$$$
674858
     RDKit          2D

 24 28  0  0  0  0  0  0  0  0999 V2000
   -2.9456    6.8817    0.0000 C   0  0  0  0  0  0  0  0  0  0  0  0
   -1.7321    6.0000    0.0000 C   0  0  0  0  0  0  0  0  0  0  0  0
   -3.0311    5.2500    0.0000 C   0  0  0  0  0  0  0  0  0  0  0  0
   -3.0311    3.7500    0.0000 C   0  0  0  0  0  0  0  0  0  0  0  0
   -1.7321    3.0000    0.0000 C   0  0  0  0  0  0  0  0  0  0  0  0
   -0.4330    3.7500    0.0000 C   0  0  0  0  0  0  0  0  0  0  0  0
    0.8660    3.0000    0.0000 C   0  0  0  0  0  0  0  0  0  0  0  0
    0.8660    1.5000    0.0000 C   0  0  0  0  0  0  0  0  0  0  0  0
   -0.4330    0.7500    0.0000 C   0  0  0  0  0  0  0  0  0  0  0  0
    0.8660    0.0000    0.0000 O   0  0  0  0  0  0  0  0  0  0  0  0
   -0.4330   -0.7500    0.0000 C   0  0  0  0  0  0  0  0  0  0  0  0
   -1.7321   -1.5000    0.0000 C   0  0  0  0  0  0  0  0  0  0  0  0
   -3.0311   -0.7500    0.0000 C   0  0  0  0  0  0  0  0  0  0  0  0
   -3.0311    0.7500    0.0000 C   0  0  0  0  0  0  0  0  0  0  0  0
   -1.7321    1.5000    0.0000 C   0  0  0  0  0  0  0  0  0  0  0  0
   -3.0311    2.2500    0.0000 C   0  0  0  0  0  0  0  0  0  0  0  0
   -4.3301   -1.5000    0.0000 C   0  0  0  0  0  0  0  0  0  0  0  0
   -5.6292   -2.2500    0.0000 N   0  0  0  0  0  0  0  0  0  0  0  0
   -1.7321   -3.0000    0.0000 O   0  0  0  0  0  0  0  0  0  0  0  0
   -0.4330    5.2500    0.0000 C   0  0  0  0  0  0  0  0  0  0  0  0
    0.6817    6.2537    0.0000 C   0  0  0  0  0  0  0  0  0  0  0  0
    0.0716    7.6240    0.0000 C   0  0  0  0  0  0  0  0  0  0  0  0
   -1.4202    7.4672    0.0000 C   0  0  0  0  0  0  0  0  0  0  0  0
   -2.4239    8.5819    0.0000 O   0  0  0  0  0  0  0  0  0  0  0  0
  2  1  1  1
  2  3  1  0
  3  4  1  0
  5  4  1  1
  5  6  1  0
  6  7  1  6
  7  8  1  0
  9  8  1  1
  9 10  1  0
 11 10  1  6
 11 12  1  0
 12 13  2  0
 13 14  1  0
 14 15  1  0
 15 16  1  1
 13 17  1  0
 17 18  3  0
 12 19  1  0
  6 20  1  0
 20 21  1  1
 21 22  1  0
 22 23  1  0
 23 24  1  1
 20  2  1  0
 23  2  1  0
 15  5  1  0
 11  9  1  0
 15  9  1  0
M  END
$$$$
674920
     RDKit          2D

 37 41  0  0  0  0  0  0  0  0999 V2000
   -4.4918   -5.3529    0.0000 C   0  0  0  0  0  0  0  0  0  0  0  0
   -3.0000   -5.1962    0.0000 C   0  0  0  0  0  0  0  0  0  0  0  0
   -3.7500   -3.8971    0.0000 C   0  0  0  0  0  0  0  0  0  0  0  0
   -3.0000   -2.5981    0.0000 C   0  0  0  0  0  0  0  0  0  0  0  0
   -1.5000   -2.5981    0.0000 C   0  0  0  0  0  0  0  0  0  0  0  0
   -0.7500   -3.8971    0.0000 C   0  0  0  0  0  0  0  0  0  0  0  0
    0.7500   -3.8971    0.0000 C   0  0  0  0  0  0  0  0  0  0  0  0
    1.5000   -2.5981    0.0000 C   0  0  0  0  0  0  0  0  0  0  0  0
    0.7500   -1.2990    0.0000 C   0  0  0  0  0  0  0  0  0  0  0  0
    1.5000    0.0000    0.0000 N   0  0  0  0  0  0  0  0  0  0  0  0
    0.7500    1.2990    0.0000 C   0  0  0  0  0  0  0  0  0  0  0  0
    1.5000    2.5981    0.0000 O   0  0  0  0  0  0  0  0  0  0  0  0
   -0.7500    1.2990    0.0000 C   0  0  0  0  0  0  0  0  0  0  0  0
   -1.5000    0.0000    0.0000 C   0  0  0  0  0  0  0  0  0  0  0  0
   -0.7500   -1.2990    0.0000 C   0  0  0  0  0  0  0  0  0  0  0  0
   -2.2500   -1.2990    0.0000 C   0  0  0  0  0  0  0  0  0  0  0  0
   -1.5000   -5.1962    0.0000 C   0  0  0  0  0  0  0  0  0  0  0  0
   -1.0365   -6.6227    0.0000 C   0  0  0  0  0  0  0  0  0  0  0  0
   -2.2500   -7.5044    0.0000 C   0  0  0  0  0  0  0  0  0  0  0  0
   -3.4635   -6.6227    0.0000 C   0  0  0  0  0  0  0  0  0  0  0  0
   -4.8901   -7.0863    0.0000 C   0  0  0  0  0  0  0  0  0  0  0  0
   -6.0048   -6.0826    0.0000 O   0  0  0  0  0  0  0  0  0  0  0  0
   -5.2020   -8.5535    0.0000 N   0  0  0  0  0  0  0  0  0  0  0  0
   -6.6286   -9.0170    0.0000 C   0  0  0  0  0  0  0  0  0  0  0  0
   -7.7433   -8.0133    0.0000 C   0  0  0  0  0  0  0  0  0  0  0  0
   -9.1699   -8.4768    0.0000 C   0  0  0  0  0  0  0  0  0  0  0  0
   -9.4817   -9.9441    0.0000 C   0  0  0  0  0  0  0  0  0  0  0  0
   -8.3670  -10.9478    0.0000 C   0  0  0  0  0  0  0  0  0  0  0  0
   -6.9404  -10.4842    0.0000 C   0  0  0  0  0  0  0  0  0  0  0  0
   -5.8257  -11.4879    0.0000 C   0  0  0  0  0  0  0  0  0  0  0  0
   -4.7110  -12.4916    0.0000 F   0  0  0  0  0  0  0  0  0  0  0  0
   -6.8294  -12.6026    0.0000 F   0  0  0  0  0  0  0  0  0  0  0  0
   -4.8220  -10.3732    0.0000 F   0  0  0  0  0  0  0  0  0  0  0  0
  -10.2846   -7.4731    0.0000 C   0  0  0  0  0  0  0  0  0  0  0  0
  -11.3993   -6.4694    0.0000 F   0  0  0  0  0  0  0  0  0  0  0  0
   -9.2809   -6.3584    0.0000 F   0  0  0  0  0  0  0  0  0  0  0  0
  -11.2883   -8.5879    0.0000 F   0  0  0  0  0  0  0  0  0  0  0  0
  2  1  1  6
  2  3  1  0
  3  4  1  0
  5  4  1  6
  5  6  1  0
  6  7  1  1
  7  8  1  0
  9  8  1  6
  9 10  1  0
 10 11  1  0
 11 12  2  0
 11 13  1  0
 13 14  2  0
 14 15  1  0
 15 16  1  6
  6 17  1  0
 17 18  1  6
 18 19  1  0
 19 20  1  0
 20 21  1  6
 21 22  2  0
 21 23  1  0
 23 24  1  0
 24 25  2  0
 25 26  1  0
 26 27  2  0
 27 28  1  0
 28 29  2  0
 29 30  1  0
 30 31  1  0
 30 32  1  0
 30 33  1  0
 26 34  1  0
 34 35  1  0
 34 36  1  0
 34 37  1  0
 17  2  1  0
 20  2  1  0
 15  5  1  0
 15  9  1  0
 29 24  1  0
M  END
$$$$
381691
     RDKit          2D

 28 31  0  0  0  0  0  0  0  0999 V2000
   -4.4998   -5.1699    0.0000 C   0  0  0  0  0  0  0  0  0  0  0  0
   -3.0000   -5.1962    0.0000 C   0  0  0  0  0  0  0  0  0  0  0  0
   -3.7500   -3.8971    0.0000 C   0  0  0  0  0  0  0  0  0  0  0  0
   -3.0000   -2.5981    0.0000 C   0  0  0  0  0  0  0  0  0  0  0  0
   -3.7500   -1.2990    0.0000 O   0  0  0  0  0  0  0  0  0  0  0  0
   -1.5000   -2.5981    0.0000 C   0  0  0  0  0  0  0  0  0  0  0  0
   -2.2500   -3.8971    0.0000 F   0  0  0  0  0  0  0  0  0  0  0  0
   -0.7500   -3.8971    0.0000 C   0  0  0  0  0  0  0  0  0  0  0  0
    0.7500   -3.8971    0.0000 C   0  0  0  0  0  0  0  0  0  0  0  0
    1.5000   -2.5981    0.0000 C   0  0  0  0  0  0  0  0  0  0  0  0
    0.7500   -1.2990    0.0000 C   0  0  0  0  0  0  0  0  0  0  0  0
    1.5000    0.0000    0.0000 C   0  0  0  0  0  0  0  0  0  0  0  0
    0.7500    1.2990    0.0000 C   0  0  0  0  0  0  0  0  0  0  0  0
    1.5000    2.5981    0.0000 O   0  0  0  0  0  0  0  0  0  0  0  0
   -0.7500    1.2990    0.0000 C   0  0  0  0  0  0  0  0  0  0  0  0
   -1.5000    0.0000    0.0000 C   0  0  0  0  0  0  0  0  0  0  0  0
   -0.7500   -1.2990    0.0000 C   0  0  0  0  0  0  0  0  0  0  0  0
   -2.2500   -1.2990    0.0000 C   0  0  0  0  0  0  0  0  0  0  0  0
   -1.5000   -5.1962    0.0000 C   0  0  0  0  0  0  0  0  0  0  0  0
   -1.0365   -6.6227    0.0000 C   0  0  0  0  0  0  0  0  0  0  0  0
   -2.2500   -7.5044    0.0000 C   0  0  0  0  0  0  0  0  0  0  0  0
   -2.2500   -9.0044    0.0000 O   0  0  0  0  0  0  0  0  0  0  0  0
   -3.4635   -6.6227    0.0000 C   0  0  0  0  0  0  0  0  0  0  0  0
   -4.8980   -6.1842    0.0000 O   0  0  0  0  0  0  0  0  0  0  0  0
   -4.2135   -7.9218    0.0000 C   0  0  0  0  0  0  0  0  0  0  0  0
   -3.4635   -9.2208    0.0000 O   0  0  0  0  0  0  0  0  0  0  0  0
   -5.7135   -7.9218    0.0000 C   0  0  0  0  0  0  0  0  0  0  0  0
   -6.4635   -9.2208    0.0000 O   0  0  0  0  0  0  0  0  0  0  0  0
  2  1  1  6
  2  3  1  0
  3  4  1  0
  4  5  1  6
  4  6  1  0
  6  7  1  1
  6  8  1  0
  8  9  1  1
  9 10  1  0
 10 11  1  0
 11 12  2  0
 12 13  1  0
 13 14  2  0
 13 15  1  0
 15 16  2  0
 16 17  1  0
 17 18  1  6
  8 19  1  0
 19 20  1  6
 20 21  1  0
 21 22  1  1
 21 23  1  0
 23 24  1  1
 23 25  1  0
 25 26  2  0
 25 27  1  0
 27 28  1  0
 19  2  1  0
 23  2  1  0
 17  6  1  0
 17 11  1  0
M  END
$$$$
27370
     RDKit          2D

 26 29  0  0  0  0  0  0  0  0999 V2000
   -4.4998   -5.1699    0.0000 C   0  0  0  0  0  0  0  0  0  0  0  0
   -3.0000   -5.1962    0.0000 C   0  0  0  0  0  0  0  0  0  0  0  0
   -3.7500   -3.8971    0.0000 C   0  0  0  0  0  0  0  0  0  0  0  0
   -3.0000   -2.5981    0.0000 C   0  0  0  0  0  0  0  0  0  0  0  0
   -3.7500   -1.2990    0.0000 O   0  0  0  0  0  0  0  0  0  0  0  0
   -1.5000   -2.5981    0.0000 C   0  0  0  0  0  0  0  0  0  0  0  0
   -0.7500   -3.8971    0.0000 C   0  0  0  0  0  0  0  0  0  0  0  0
    0.7500   -3.8971    0.0000 C   0  0  0  0  0  0  0  0  0  0  0  0
    1.5000   -2.5981    0.0000 C   0  0  0  0  0  0  0  0  0  0  0  0
    0.7500   -1.2990    0.0000 C   0  0  0  0  0  0  0  0  0  0  0  0
    1.5000    0.0000    0.0000 C   0  0  0  0  0  0  0  0  0  0  0  0
    0.7500    1.2990    0.0000 C   0  0  0  0  0  0  0  0  0  0  0  0
    1.5000    2.5981    0.0000 O   0  0  0  0  0  0  0  0  0  0  0  0
   -0.7500    1.2990    0.0000 C   0  0  0  0  0  0  0  0  0  0  0  0
   -1.5000    0.0000    0.0000 C   0  0  0  0  0  0  0  0  0  0  0  0
   -0.7500   -1.2990    0.0000 C   0  0  0  0  0  0  0  0  0  0  0  0
   -2.2500   -1.2990    0.0000 C   0  0  0  0  0  0  0  0  0  0  0  0
   -1.5000   -5.1962    0.0000 C   0  0  0  0  0  0  0  0  0  0  0  0
   -1.0365   -6.6227    0.0000 C   0  0  0  0  0  0  0  0  0  0  0  0
   -2.2500   -7.5044    0.0000 C   0  0  0  0  0  0  0  0  0  0  0  0
   -3.4635   -6.6227    0.0000 C   0  0  0  0  0  0  0  0  0  0  0  0
   -4.8980   -6.1842    0.0000 O   0  0  0  0  0  0  0  0  0  0  0  0
   -4.2135   -7.9218    0.0000 C   0  0  0  0  0  0  0  0  0  0  0  0
   -3.4635   -9.2208    0.0000 O   0  0  0  0  0  0  0  0  0  0  0  0
   -5.7135   -7.9218    0.0000 C   0  0  0  0  0  0  0  0  0  0  0  0
   -6.4635   -9.2208    0.0000 O   0  0  0  0  0  0  0  0  0  0  0  0
  2  1  1  6
  2  3  1  0
  3  4  1  0
  4  5  1  6
  6  4  1  6
  6  7  1  0
  7  8  1  1
  8  9  1  0
  9 10  1  0
 10 11  2  0
 11 12  1  0
 12 13  2  0
 12 14  1  0
 14 15  2  0
 15 16  1  0
 16 17  1  6
  7 18  1  0
 18 19  1  6
 19 20  1  0
 20 21  1  0
 21 22  1  1
 21 23  1  0
 23 24  2  0
 23 25  1  0
 25 26  1  0
 18  2  1  0
 21  2  1  0
 16  6  1  0
 16 10  1  0
M  END
$$$$
675182
     RDKit          2D

 30 33  0  0  0  0  0  0  0  0999 V2000
   -4.4998   -5.1699    0.0000 C   0  0  0  0  0  0  0  0  0  0  0  0
   -3.0000   -5.1962    0.0000 C   0  0  0  0  0  0  0  0  0  0  0  0
   -3.7500   -3.8971    0.0000 C   0  0  0  0  0  0  0  0  0  0  0  0
   -3.0000   -2.5981    0.0000 C   0  0  0  0  0  0  0  0  0  0  0  0
   -3.7500   -1.2990    0.0000 O   0  0  0  0  0  0  0  0  0  0  0  0
   -1.5000   -2.5981    0.0000 C   0  0  0  0  0  0  0  0  0  0  0  0
   -0.7500   -3.8971    0.0000 C   0  0  0  0  0  0  0  0  0  0  0  0
    0.7500   -3.8971    0.0000 C   0  0  0  0  0  0  0  0  0  0  0  0
    1.5000   -2.5981    0.0000 C   0  0  0  0  0  0  0  0  0  0  0  0
    0.7500   -1.2990    0.0000 C   0  0  0  0  0  0  0  0  0  0  0  0
    1.5000    0.0000    0.0000 C   0  0  0  0  0  0  0  0  0  0  0  0
    0.7500    1.2990    0.0000 C   0  0  0  0  0  0  0  0  0  0  0  0
    1.5000    2.5981    0.0000 O   0  0  0  0  0  0  0  0  0  0  0  0
   -0.7500    1.2990    0.0000 C   0  0  0  0  0  0  0  0  0  0  0  0
   -1.5000    0.0000    0.0000 C   0  0  0  0  0  0  0  0  0  0  0  0
   -0.7500   -1.2990    0.0000 C   0  0  0  0  0  0  0  0  0  0  0  0
   -2.2500   -1.2990    0.0000 C   0  0  0  0  0  0  0  0  0  0  0  0
   -1.5000   -5.1962    0.0000 C   0  0  0  0  0  0  0  0  0  0  0  0
   -1.0365   -6.6227    0.0000 C   0  0  0  0  0  0  0  0  0  0  0  0
   -2.2500   -7.5044    0.0000 C   0  0  0  0  0  0  0  0  0  0  0  0
   -3.4635   -6.6227    0.0000 C   0  0  0  0  0  0  0  0  0  0  0  0
   -4.8980   -6.1842    0.0000 O   0  0  0  0  0  0  0  0  0  0  0  0
   -4.2135   -7.9218    0.0000 C   0  0  0  0  0  0  0  0  0  0  0  0
   -3.4635   -9.2208    0.0000 O   0  0  0  0  0  0  0  0  0  0  0  0
   -5.7135   -7.9218    0.0000 C   0  0  0  0  0  0  0  0  0  0  0  0
   -6.4635   -9.2208    0.0000 O   0  0  0  0  0  0  0  0  0  0  0  0
   -7.9635   -9.2208    0.0000 P   0  0  0  0  0  0  0  0  0  0  0  0
   -7.9635  -10.7208    0.0000 O   0  0  0  0  0  0  0  0  0  0  0  0
   -7.9635   -7.7208    0.0000 O   0  0  0  0  0  0  0  0  0  0  0  0
   -9.4635   -9.2208    0.0000 O   0  0  0  0  0  0  0  0  0  0  0  0
  2  1  1  6
  2  3  1  0
  3  4  1  0
  4  5  1  6
  6  4  1  6
  6  7  1  0
  7  8  1  1
  8  9  1  0
  9 10  1  0
 10 11  2  0
 11 12  1  0
 12 13  2  0
 12 14  1  0
 14 15  2  0
 15 16  1  0
 16 17  1  6
  7 18  1  0
 18 19  1  6
 19 20  1  0
 20 21  1  0
 21 22  1  1
 21 23  1  0
 23 24  2  0
 23 25  1  0
 25 26  1  0
 26 27  1  0
 27 28  2  0
 27 29  1  0
 27 30  1  0
 18  2  1  0
 21  2  1  0
 16  6  1  0
 16 10  1  0
M  END
$$$$
674725
     RDKit          2D

 27 30  0  0  0  0  0  0  0  0999 V2000
   -4.4998   -5.1699    0.0000 C   0  0  0  0  0  0  0  0  0  0  0  0
   -3.0000   -5.1962    0.0000 C   0  0  0  0  0  0  0  0  0  0  0  0
   -3.7500   -3.8971    0.0000 C   0  0  0  0  0  0  0  0  0  0  0  0
   -3.0000   -2.5981    0.0000 C   0  0  0  0  0  0  0  0  0  0  0  0
   -3.7500   -1.2990    0.0000 O   0  0  0  0  0  0  0  0  0  0  0  0
   -1.5000   -2.5981    0.0000 C   0  0  0  0  0  0  0  0  0  0  0  0
   -0.7500   -3.8971    0.0000 C   0  0  0  0  0  0  0  0  0  0  0  0
    0.7500   -3.8971    0.0000 C   0  0  0  0  0  0  0  0  0  0  0  0
    1.5000   -2.5981    0.0000 C   0  0  0  0  0  0  0  0  0  0  0  0
    3.0000   -2.5981    0.0000 F   0  0  0  0  0  0  0  0  0  0  0  0
    0.7500   -1.2990    0.0000 C   0  0  0  0  0  0  0  0  0  0  0  0
    1.5000    0.0000    0.0000 C   0  0  0  0  0  0  0  0  0  0  0  0
    0.7500    1.2990    0.0000 C   0  0  0  0  0  0  0  0  0  0  0  0
    1.5000    2.5981    0.0000 O   0  0  0  0  0  0  0  0  0  0  0  0
   -0.7500    1.2990    0.0000 C   0  0  0  0  0  0  0  0  0  0  0  0
   -1.5000    0.0000    0.0000 C   0  0  0  0  0  0  0  0  0  0  0  0
   -0.7500   -1.2990    0.0000 C   0  0  0  0  0  0  0  0  0  0  0  0
   -2.2500   -1.2990    0.0000 C   0  0  0  0  0  0  0  0  0  0  0  0
   -1.5000   -5.1962    0.0000 C   0  0  0  0  0  0  0  0  0  0  0  0
   -1.0365   -6.6227    0.0000 C   0  0  0  0  0  0  0  0  0  0  0  0
   -2.2500   -7.5044    0.0000 C   0  0  0  0  0  0  0  0  0  0  0  0
   -3.4635   -6.6227    0.0000 C   0  0  0  0  0  0  0  0  0  0  0  0
   -4.8980   -6.1842    0.0000 O   0  0  0  0  0  0  0  0  0  0  0  0
   -4.2135   -7.9218    0.0000 C   0  0  0  0  0  0  0  0  0  0  0  0
   -3.4635   -9.2208    0.0000 O   0  0  0  0  0  0  0  0  0  0  0  0
   -5.7135   -7.9218    0.0000 C   0  0  0  0  0  0  0  0  0  0  0  0
   -6.4635   -9.2208    0.0000 O   0  0  0  0  0  0  0  0  0  0  0  0
  2  1  1  6
  2  3  1  0
  3  4  1  0
  4  5  1  6
  6  4  1  6
  6  7  1  0
  7  8  1  1
  8  9  1  0
  9 10  1  1
  9 11  1  0
 11 12  2  0
 12 13  1  0
 13 14  2  0
 13 15  1  0
 15 16  2  0
 16 17  1  0
 17 18  1  6
  7 19  1  0
 19 20  1  6
 20 21  1  0
 21 22  1  0
 22 23  1  1
 22 24  1  0
 24 25  2  0
 24 26  1  0
 26 27  1  0
 19  2  1  0
 22  2  1  0
 17  6  1  0
 17 11  1  0
M  END
$$$$
160056
     RDKit          2D

  8  7  0  0  0  0  0  0  0  0999 V2000
    0.0000    0.0000    0.0000 C   0  0  0  0  0  0  0  0  0  0  0  0
    1.2990    0.7500    0.0000 N   0  0  0  0  0  4  0  0  0  0  0  0
    2.5981    1.5000    0.0000 C   0  0  0  0  0  0  0  0  0  0  0  0
    2.0490   -0.5490    0.0000 C   0  0  0  0  0  0  0  0  0  0  0  0
    0.5490    2.0490    0.0000 C   0  0  0  0  0  0  0  0  0  0  0  0
    1.2990    3.3481    0.0000 C   0  0  0  0  0  0  0  0  0  0  0  0
    2.7990    3.3481    0.0000 O   0  0  0  0  0  0  0  0  0  0  0  0
    0.5490    4.6471    0.0000 O   0  0  0  0  0  0  0  0  0  0  0  0
  1  2  1  0
  2  3  1  0
  2  4  1  0
  2  5  1  0
  5  6  1  0
  6  7  2  0
  6  8  1  0
M  CHG  1   2   1
M  END
$$$$
181939
     RDKit          2D

 11 10  0  0  0  0  0  0  0  0999 V2000
    0.0000    0.0000    0.0000 C   0  0  0  0  0  0  0  0  0  0  0  0
    1.2990    0.7500    0.0000 N   0  0  0  0  0  4  0  0  0  0  0  0
    2.5981    1.5000    0.0000 C   0  0  0  0  0  0  0  0  0  0  0  0
    2.0490   -0.5490    0.0000 C   0  0  0  0  0  0  0  0  0  0  0  0
    0.5490    2.0490    0.0000 C   0  0  0  0  0  0  0  0  0  0  0  0
    1.2990    3.3481    0.0000 C   0  0  0  0  0  0  0  0  0  0  0  0
    2.7990    3.3481    0.0000 O   0  0  0  0  0  0  0  0  0  0  0  0
    0.5490    4.6471    0.0000 C   0  0  0  0  0  0  0  0  0  0  0  0
    1.2990    5.9462    0.0000 C   0  0  0  0  0  0  0  0  0  0  0  0
    2.7990    5.9462    0.0000 O   0  0  0  0  0  0  0  0  0  0  0  0
    0.5490    7.2452    0.0000 O   0  0  0  0  0  1  0  0  0  0  0  0
  1  2  1  0
  2  3  1  0
  2  4  1  0
  2  5  1  0
  5  6  1  0
  6  7  1  1
  6  8  1  0
  8  9  1  0
  9 10  2  0
  9 11  1  0
M  CHG  2   2   1  11  -1
M  END
$$$$
675291
     RDKit          2D

 21 23  0  0  0  0  0  0  0  0999 V2000
    2.6491    0.9642    0.0000 C   0  0  0  0  0  0  0  0  0  0  0  0
    1.5000    0.0000    0.0000 N   0  0  0  0  0  4  0  0  0  0  0  0
    2.6491   -0.9642    0.0000 C   0  0  0  0  0  0  0  0  0  0  0  0
    0.7500   -1.2990    0.0000 C   0  0  0  0  0  0  0  0  0  0  0  0
   -0.7500   -1.2990    0.0000 C   0  0  0  0  0  0  0  0  0  0  0  0
   -1.5000    0.0000    0.0000 C   0  0  0  0  0  0  0  0  0  0  0  0
   -3.0000    0.0000    0.0000 C   0  0  0  0  0  0  0  0  0  0  0  0
   -3.7500    1.2990    0.0000 C   0  0  0  0  0  0  0  0  0  0  0  0
   -3.0000    2.5981    0.0000 C   0  0  0  0  0  0  0  0  0  0  0  0
   -3.7500    3.8971    0.0000 C   0  0  0  0  0  0  0  0  0  0  0  0
   -5.2500    3.8971    0.0000 C   0  0  0  0  0  0  0  0  0  0  0  0
   -6.0000    2.5981    0.0000 C   0  0  0  0  0  0  0  0  0  0  0  0
   -5.2500    1.2990    0.0000 C   0  0  0  0  0  0  0  0  0  0  0  0
   -3.7500   -1.2990    0.0000 C   0  0  0  0  0  0  0  0  0  0  0  0
   -5.2500   -1.2990    0.0000 C   0  0  0  0  0  0  0  0  0  0  0  0
   -6.0000   -2.5981    0.0000 C   0  0  0  0  0  0  0  0  0  0  0  0
   -5.2500   -3.8971    0.0000 C   0  0  0  0  0  0  0  0  0  0  0  0
   -3.7500   -3.8971    0.0000 C   0  0  0  0  0  0  0  0  0  0  0  0
   -3.0000   -2.5981    0.0000 C   0  0  0  0  0  0  0  0  0  0  0  0
   -0.7500    1.2990    0.0000 C   0  0  0  0  0  0  0  0  0  0  0  0
    0.7500    1.2990    0.0000 C   0  0  0  0  0  0  0  0  0  0  0  0
  1  2  1  0
  2  3  1  0
  2  4  1  0
  4  5  1  0
  5  6  1  0
  6  7  2  0
  7  8  1  0
  8  9  2  0
  9 10  1  0
 10 11  2  0
 11 12  1  0
 12 13  2  0
  7 14  1  0
 14 15  2  0
 15 16  1  0
 16 17  2  0
 17 18  1  0
 18 19  2  0
  6 20  1  0
 20 21  1  0
 21  2  1  0
 13  8  1  0
 19 14  1  0
M  CHG  1   2   1
M  END
$$$$
675286
     RDKit          2D

 23 25  0  0  0  0  0  0  0  0999 V2000
    8.9847   -0.4618    0.0000 C   0  0  0  0  0  0  0  0  0  0  0  0
    7.7711   -1.3435    0.0000 N   0  0  0  0  0  4  0  0  0  0  0  0
    8.7748   -2.4582    0.0000 C   0  0  0  0  0  0  0  0  0  0  0  0
    7.0211   -0.0444    0.0000 C   0  0  0  0  0  0  0  0  0  0  0  0
    5.5539   -0.3563    0.0000 C   0  0  0  0  0  0  0  0  0  0  0  0
    5.3971   -1.8481    0.0000 C   0  0  0  0  0  0  0  0  0  0  0  0
    6.7674   -2.4582    0.0000 C   0  0  0  0  0  0  0  0  0  0  0  0
    4.0981   -2.5981    0.0000 O   0  0  0  0  0  0  0  0  0  0  0  0
    2.7990   -1.8481    0.0000 C   0  0  0  0  0  0  0  0  0  0  0  0
    2.7990   -0.3481    0.0000 O   0  0  0  0  0  0  0  0  0  0  0  0
    1.5000   -2.5981    0.0000 C   0  0  0  0  0  0  0  0  0  0  0  0
    0.2010   -3.3481    0.0000 O   0  0  0  0  0  0  0  0  0  0  0  0
    2.2500   -3.8971    0.0000 C   0  0  0  0  0  0  0  0  0  0  0  0
    3.7418   -4.0539    0.0000 C   0  0  0  0  0  0  0  0  0  0  0  0
    4.0537   -5.5211    0.0000 C   0  0  0  0  0  0  0  0  0  0  0  0
    2.7546   -6.2711    0.0000 C   0  0  0  0  0  0  0  0  0  0  0  0
    1.6399   -5.2674    0.0000 C   0  0  0  0  0  0  0  0  0  0  0  0
    0.7500   -1.2990    0.0000 C   0  0  0  0  0  0  0  0  0  0  0  0
    1.5000    0.0000    0.0000 C   0  0  0  0  0  0  0  0  0  0  0  0
    0.7500    1.2990    0.0000 C   0  0  0  0  0  0  0  0  0  0  0  0
   -0.7500    1.2990    0.0000 C   0  0  0  0  0  0  0  0  0  0  0  0
   -1.5000    0.0000    0.0000 C   0  0  0  0  0  0  0  0  0  0  0  0
   -0.7500   -1.2990    0.0000 C   0  0  0  0  0  0  0  0  0  0  0  0
  1  2  1  0
  2  3  1  0
  2  4  1  0
  4  5  1  0
  5  6  1  0
  6  7  1  0
  6  8  1  0
  8  9  1  0
  9 10  2  0
  9 11  1  0
 11 12  1  0
 11 13  1  0
 13 14  1  0
 14 15  1  0
 15 16  1  0
 16 17  1  0
 11 18  1  0
 18 19  2  0
 19 20  1  0
 20 21  2  0
 21 22  1  0
 22 23  2  0
  7  2  1  0
 17 13  1  0
 23 18  1  0
M  CHG  1   2   1
M  END
$$$$
469580
     RDKit          2D

 25 27  0  0  0  0  0  0  0  0999 V2000
    2.6491    0.9642    0.0000 C   0  0  0  0  0  0  0  0  0  0  0  0
    1.5000    0.0000    0.0000 N   0  0  0  0  0  4  0  0  0  0  0  0
    2.6491   -0.9642    0.0000 C   0  0  0  0  0  0  0  0  0  0  0  0
    0.7500   -1.2990    0.0000 C   0  0  0  0  0  0  0  0  0  0  0  0
   -0.7500   -1.2990    0.0000 C   0  0  0  0  0  0  0  0  0  0  0  0
   -1.5000    0.0000    0.0000 C   0  0  0  0  0  0  0  0  0  0  0  0
   -0.7500    1.2990    0.0000 C   0  0  0  0  0  0  0  0  0  0  0  0
    0.7500    1.2990    0.0000 C   0  0  0  0  0  0  0  0  0  0  0  0
   -1.5000    2.5981    0.0000 O   0  0  0  0  0  0  0  0  0  0  0  0
   -0.7500    3.8971    0.0000 C   0  0  0  0  0  0  0  0  0  0  0  0
    0.7500    3.8971    0.0000 O   0  0  0  0  0  0  0  0  0  0  0  0
   -1.5000    5.1962    0.0000 C   0  0  0  0  0  0  0  0  0  0  0  0
   -2.2500    6.4952    0.0000 O   0  0  0  0  0  0  0  0  0  0  0  0
   -2.7990    4.4462    0.0000 C   0  0  0  0  0  0  0  0  0  0  0  0
   -4.0981    5.1962    0.0000 C   0  0  0  0  0  0  0  0  0  0  0  0
   -5.3971    4.4462    0.0000 C   0  0  0  0  0  0  0  0  0  0  0  0
   -5.3971    2.9462    0.0000 C   0  0  0  0  0  0  0  0  0  0  0  0
   -4.0981    2.1962    0.0000 C   0  0  0  0  0  0  0  0  0  0  0  0
   -2.7990    2.9462    0.0000 C   0  0  0  0  0  0  0  0  0  0  0  0
   -0.2010    5.9462    0.0000 C   0  0  0  0  0  0  0  0  0  0  0  0
    1.0981    5.1962    0.0000 C   0  0  0  0  0  0  0  0  0  0  0  0
    2.3971    5.9462    0.0000 C   0  0  0  0  0  0  0  0  0  0  0  0
    2.3971    7.4462    0.0000 C   0  0  0  0  0  0  0  0  0  0  0  0
    1.0981    8.1962    0.0000 C   0  0  0  0  0  0  0  0  0  0  0  0
   -0.2010    7.4462    0.0000 C   0  0  0  0  0  0  0  0  0  0  0  0
  1  2  1  0
  2  3  1  0
  2  4  1  0
  4  5  1  0
  5  6  1  0
  6  7  1  0
  7  8  1  0
  7  9  1  0
  9 10  1  0
 10 11  2  0
 10 12  1  0
 12 13  1  0
 12 14  1  0
 14 15  2  0
 15 16  1  0
 16 17  2  0
 17 18  1  0
 18 19  2  0
 12 20  1  0
 20 21  2  0
 21 22  1  0
 22 23  2  0
 23 24  1  0
 24 25  2  0
  8  2  1  0
 19 14  1  0
 25 20  1  0
M  CHG  1   2   1
M  END
$$$$
675276
     RDKit          2D

 23 25  0  0  0  0  0  0  0  0999 V2000
    2.6491   -0.9642    0.0000 C   0  0  0  0  0  0  0  0  0  0  0  0
    1.5000   -0.0000    0.0000 N   0  0  0  0  0  4  0  0  0  0  0  0
    2.6491    0.9642    0.0000 C   0  0  0  0  0  0  0  0  0  0  0  0
    0.7500    1.2990    0.0000 C   0  0  0  0  0  0  0  0  0  0  0  0
   -0.7500    1.2990    0.0000 C   0  0  0  0  0  0  0  0  0  0  0  0
   -1.5000   -0.0000    0.0000 N   0  0  0  0  0  0  0  0  0  0  0  0
   -3.0000    0.0000    0.0000 C   0  0  0  0  0  0  0  0  0  0  0  0
   -3.7500    1.2990    0.0000 C   0  0  0  0  0  0  0  0  0  0  0  0
   -4.5000    2.5981    0.0000 O   0  0  0  0  0  0  0  0  0  0  0  0
   -2.4510    2.0490    0.0000 C   0  0  0  0  0  0  0  0  0  0  0  0
   -2.4510    3.5490    0.0000 C   0  0  0  0  0  0  0  0  0  0  0  0
   -1.1519    4.2990    0.0000 C   0  0  0  0  0  0  0  0  0  0  0  0
    0.1471    3.5490    0.0000 C   0  0  0  0  0  0  0  0  0  0  0  0
    0.1471    2.0490    0.0000 C   0  0  0  0  0  0  0  0  0  0  0  0
   -1.1519    1.2990    0.0000 C   0  0  0  0  0  0  0  0  0  0  0  0
   -5.0490    0.5490    0.0000 C   0  0  0  0  0  0  0  0  0  0  0  0
   -5.0490   -0.9510    0.0000 C   0  0  0  0  0  0  0  0  0  0  0  0
   -6.3481   -1.7010    0.0000 C   0  0  0  0  0  0  0  0  0  0  0  0
   -7.6471   -0.9510    0.0000 C   0  0  0  0  0  0  0  0  0  0  0  0
   -7.6471    0.5490    0.0000 C   0  0  0  0  0  0  0  0  0  0  0  0
   -6.3481    1.2990    0.0000 C   0  0  0  0  0  0  0  0  0  0  0  0
   -0.7500   -1.2990    0.0000 C   0  0  0  0  0  0  0  0  0  0  0  0
    0.7500   -1.2990    0.0000 C   0  0  0  0  0  0  0  0  0  0  0  0
  1  2  1  0
  2  3  1  0
  2  4  1  0
  4  5  1  0
  5  6  1  0
  6  7  1  0
  7  8  1  0
  8  9  1  0
  8 10  1  0
 10 11  1  0
 11 12  1  0
 12 13  1  0
 13 14  1  0
 14 15  1  0
  8 16  1  0
 16 17  2  0
 17 18  1  0
 18 19  2  0
 19 20  1  0
 20 21  2  0
  6 22  1  0
 22 23  1  0
 23  2  1  0
 15 10  1  0
 21 16  1  0
M  CHG  1   2   1
M  END
$$$$
675186
     RDKit          2D

 21 23  0  0  0  0  0  0  0  0999 V2000
    2.6004    0.7041    0.0000 C   0  0  0  0  0  0  0  0  0  0  0  0
    1.2760    0.0000    0.0000 N   0  0  0  0  0  4  0  0  0  0  0  0
    1.9798   -0.3742    0.0000 C   0  0  0  0  0  0  0  0  0  0  0  0
    0.3943    1.2135    0.0000 C   0  0  0  0  0  0  0  0  0  0  0  0
   -1.0323    0.7500    0.0000 C   0  0  0  0  0  0  0  0  0  0  0  0
   -1.0323   -0.7500    0.0000 C   0  0  0  0  0  0  0  0  0  0  0  0
    0.3943   -1.2135    0.0000 C   0  0  0  0  0  0  0  0  0  0  0  0
    1.8943   -1.3846    0.0000 C   0  0  0  0  0  0  0  0  0  0  0  0
    2.6443   -0.0855    0.0000 C   0  0  0  0  0  0  0  0  0  0  0  0
    1.8943    1.2135    0.0000 C   0  0  0  0  0  0  0  0  0  0  0  0
    4.1443   -0.0855    0.0000 O   0  0  0  0  0  0  0  0  0  0  0  0
    4.8943   -1.3846    0.0000 C   0  0  0  0  0  0  0  0  0  0  0  0
    4.1443   -2.6836    0.0000 O   0  0  0  0  0  0  0  0  0  0  0  0
    6.3943   -1.3846    0.0000 C   0  0  0  0  0  0  0  0  0  0  0  0
    7.1443   -0.0855    0.0000 O   0  0  0  0  0  0  0  0  0  0  0  0
    7.1443   -2.6836    0.0000 C   0  0  0  0  0  0  0  0  0  0  0  0
    6.3943   -3.9826    0.0000 C   0  0  0  0  0  0  0  0  0  0  0  0
    7.1443   -5.2817    0.0000 C   0  0  0  0  0  0  0  0  0  0  0  0
    8.6443   -5.2817    0.0000 C   0  0  0  0  0  0  0  0  0  0  0  0
    9.3943   -3.9826    0.0000 C   0  0  0  0  0  0  0  0  0  0  0  0
    8.6443   -2.6836    0.0000 C   0  0  0  0  0  0  0  0  0  0  0  0
  1  2  1  0
  2  3  1  0
  2  4  1  0
  4  5  1  6
  5  6  1  0
  7  6  1  6
  7  8  1  0
  8  9  1  0
  9 10  1  0
  9 11  1  6
 11 12  1  0
 12 13  2  0
 12 14  1  0
 14 15  1  0
 14 16  1  0
 16 17  2  0
 17 18  1  0
 18 19  2  0
 19 20  1  0
 20 21  2  0
  7  2  1  0
 10  4  1  0
 21 16  1  0
M  CHG  1   2   1
M  END
$$$$
675219
     RDKit          2D

 23 26  0  0  0  0  0  0  0  0999 V2000
   -3.4451   -0.3742    0.0000 C   0  0  0  0  0  0  0  0  0  0  0  0
   -2.7413    0.0000    0.0000 N   0  0  0  0  0  4  0  0  0  0  0  0
   -4.0657    0.7041    0.0000 C   0  0  0  0  0  0  0  0  0  0  0  0
   -1.8596   -1.2135    0.0000 C   0  0  0  0  0  0  0  0  0  0  0  0
   -3.3596   -1.3846    0.0000 C   0  0  0  0  0  0  0  0  0  0  0  0
   -4.1096   -0.0855    0.0000 C   0  0  0  0  0  0  0  0  0  0  0  0
   -3.3596    1.2135    0.0000 C   0  0  0  0  0  0  0  0  0  0  0  0
   -1.8596    1.2135    0.0000 C   0  0  0  0  0  0  0  0  0  0  0  0
   -0.4330    0.7500    0.0000 C   0  0  0  0  0  0  0  0  0  0  0  0
    0.8660    0.0000    0.0000 O   0  0  0  0  0  0  0  0  0  0  0  0
   -0.4330   -0.7500    0.0000 C   0  0  0  0  0  0  0  0  0  0  0  0
   -5.6096   -0.0855    0.0000 O   0  0  0  0  0  0  0  0  0  0  0  0
   -6.3596    1.2135    0.0000 C   0  0  0  0  0  0  0  0  0  0  0  0
   -5.6096    2.5126    0.0000 O   0  0  0  0  0  0  0  0  0  0  0  0
   -7.8596    1.2135    0.0000 C   0  0  0  0  0  0  0  0  0  0  0  0
   -8.6096   -0.0855    0.0000 C   0  0  0  0  0  0  0  0  0  0  0  0
  -10.1096   -0.0855    0.0000 O   0  0  0  0  0  0  0  0  0  0  0  0
   -8.6096    2.5126    0.0000 C   0  0  0  0  0  0  0  0  0  0  0  0
   -7.8596    3.8116    0.0000 C   0  0  0  0  0  0  0  0  0  0  0  0
   -8.6096    5.1106    0.0000 C   0  0  0  0  0  0  0  0  0  0  0  0
  -10.1096    5.1106    0.0000 C   0  0  0  0  0  0  0  0  0  0  0  0
  -10.8596    3.8116    0.0000 C   0  0  0  0  0  0  0  0  0  0  0  0
  -10.1096    2.5126    0.0000 C   0  0  0  0  0  0  0  0  0  0  0  0
  1  2  1  0
  2  3  1  0
  2  4  1  0
  4  5  1  6
  5  6  1  0
  6  7  1  0
  8  7  1  1
  8  9  1  0
  9 10  1  1
 11 10  1  1
  6 12  1  6
 12 13  1  0
 13 14  2  0
 13 15  1  0
 15 16  1  6
 16 17  1  0
 15 18  1  0
 18 19  2  0
 19 20  1  0
 20 21  2  0
 21 22  1  0
 22 23  2  0
  8  2  1  0
 11  4  1  0
 11  9  1  0
 23 18  1  0
M  CHG  1   2   1
M  END
$$$$
660529
     RDKit          2D

 26 31  0  0  0  0  0  0  0  0999 V2000
    2.1595   -1.8121    0.0000 C   0  0  0  0  0  0  0  0  0  0  0  0
    0.4000   -0.6928    0.0000 N   0  0  0  0  0  4  0  0  0  0  0  0
    0.4895   -2.7762    0.0000 C   0  0  0  0  0  0  0  0  0  0  0  0
    1.6386   -3.7404    0.0000 C   0  0  0  0  0  0  0  0  0  0  0  0
    3.1158   -4.0009    0.0000 C   0  0  0  0  0  0  0  0  0  0  0  0
    2.1516   -5.1500    0.0000 C   0  0  0  0  0  0  0  0  0  0  0  0
    0.8000   -0.0000    0.0000 C   0  0  0  0  0  0  0  0  0  0  0  0
    0.4000    0.6928    0.0000 C   0  0  0  0  0  0  0  0  0  0  0  0
   -0.7500    1.2990    0.0000 C   0  0  0  0  0  0  0  0  0  0  0  0
   -1.5000    2.5981    0.0000 C   0  0  0  0  0  0  0  0  0  0  0  0
   -0.4963    3.7128    0.0000 O   0  0  0  0  0  0  0  0  0  0  0  0
    0.8740    3.1027    0.0000 C   0  0  0  0  0  0  0  0  0  0  0  0
    2.2443    3.7128    0.0000 C   0  0  0  0  0  0  0  0  0  0  0  0
    2.4011    5.2046    0.0000 O   0  0  0  0  0  0  0  0  0  0  0  0
    3.4579    2.8311    0.0000 C   0  0  0  0  0  0  0  0  0  0  0  0
    3.3011    1.3393    0.0000 C   0  0  0  0  0  0  0  0  0  0  0  0
    1.9307    0.7292    0.0000 C   0  0  0  0  0  0  0  0  0  0  0  0
   -0.1666    0.0829    0.0000 C   0  0  0  0  0  0  0  0  0  0  0  0
   -0.7500   -1.2990    0.0000 C   0  0  0  0  0  0  0  0  0  0  0  0
   -1.5000    0.0000    0.0000 C   0  0  0  0  0  0  0  0  0  0  0  0
   -2.2500   -1.2990    0.0000 O   0  0  0  0  0  0  0  0  0  0  0  0
   -3.0000    0.0000    0.0000 C   0  0  0  0  0  0  0  0  0  0  0  0
   -3.7500    1.2990    0.0000 C   0  0  0  0  0  0  0  0  0  0  0  0
   -3.0000    2.5981    0.0000 C   0  0  0  0  0  0  0  0  0  0  0  0
   -3.7500    3.8971    0.0000 O   0  0  0  0  0  0  0  0  0  0  0  0
    0.7172    1.6109    0.0000 C   0  0  0  0  0  0  0  0  0  0  0  0
  1  2  1  0
  2  3  1  0
  3  4  1  0
  4  5  1  0
  5  6  1  0
  2  7  1  0
  7  8  1  0
  9  8  1  1
  9 10  1  0
 10 11  1  6
 11 12  1  0
 12 13  2  0
 13 14  1  0
 13 15  1  0
 15 16  2  0
 16 17  1  0
 17 18  1  0
 19 18  1  6
 19 20  1  0
 20 21  1  1
 20 22  1  0
 22 23  1  0
 23 24  1  0
 24 25  2  0
 17 26  2  0
 19  2  1  0
  6  4  1  0
 20  9  1  0
 26  9  1  0
 24 10  1  0
 26 12  1  0
M  CHG  1   2   1
M  END
$$$$
26351
     RDKit          2D

 26 29  0  0  0  0  0  0  0  0999 V2000
    1.5000   -2.5981    0.0000 C   0  0  0  0  0  0  0  0  0  0  0  0
    0.7500   -1.2990    0.0000 N   0  0  0  0  0  4  0  0  0  0  0  0
    1.5000    0.0000    0.0000 C   0  0  0  0  0  0  0  0  0  0  0  0
    0.7500    1.2990    0.0000 C   0  0  0  0  0  0  0  0  0  0  0  0
   -0.7500    1.2990    0.0000 C   0  0  0  0  0  0  0  0  0  0  0  0
   -1.5000    0.0000    0.0000 C   0  0  0  0  0  0  0  0  0  0  0  0
   -0.7500   -1.2990    0.0000 C   0  0  0  0  0  0  0  0  0  0  0  0
   -0.3828    0.5621    0.0000 C   0  0  0  0  0  0  0  0  0  0  0  0
    0.2954   -0.6125    0.0000 C   0  0  0  0  0  0  0  0  0  0  0  0
   -3.0000   -0.0000    0.0000 O   0  0  0  0  0  0  0  0  0  0  0  0
   -3.7500    1.2990    0.0000 C   0  0  0  0  0  0  0  0  0  0  0  0
   -3.0000    2.5981    0.0000 O   0  0  0  0  0  0  0  0  0  0  0  0
   -5.2500    1.2990    0.0000 C   0  0  0  0  0  0  0  0  0  0  0  0
   -6.7500    1.2990    0.0000 O   0  0  0  0  0  0  0  0  0  0  0  0
   -5.2500   -0.2010    0.0000 C   0  0  0  0  0  0  0  0  0  0  0  0
   -6.5490   -0.9510    0.0000 C   0  0  0  0  0  0  0  0  0  0  0  0
   -6.5490   -2.4510    0.0000 C   0  0  0  0  0  0  0  0  0  0  0  0
   -5.2500   -3.2010    0.0000 C   0  0  0  0  0  0  0  0  0  0  0  0
   -3.9510   -2.4510    0.0000 C   0  0  0  0  0  0  0  0  0  0  0  0
   -3.9510   -0.9510    0.0000 C   0  0  0  0  0  0  0  0  0  0  0  0
   -5.2500    2.7990    0.0000 C   0  0  0  0  0  0  0  0  0  0  0  0
   -3.9510    3.5490    0.0000 C   0  0  0  0  0  0  0  0  0  0  0  0
   -3.9510    5.0490    0.0000 C   0  0  0  0  0  0  0  0  0  0  0  0
   -5.2500    5.7990    0.0000 C   0  0  0  0  0  0  0  0  0  0  0  0
   -6.5490    5.0490    0.0000 C   0  0  0  0  0  0  0  0  0  0  0  0
   -6.5490    3.5490    0.0000 C   0  0  0  0  0  0  0  0  0  0  0  0
  1  2  1  0
  2  3  1  0
  3  4  1  0
  4  5  1  0
  5  6  1  0
  6  7  1  0
  5  8  1  0
  8  9  1  0
  8 10  1  0
 10 11  1  0
 11 12  2  0
 11 13  1  0
 13 14  1  0
 13 15  1  0
 15 16  2  0
 16 17  1  0
 17 18  2  0
 18 19  1  0
 19 20  2  0
 13 21  1  0
 21 22  2  0
 22 23  1  0
 23 24  2  0
 24 25  1  0
 25 26  2  0
  7  2  1  0
  9  2  1  0
 20 15  1  0
 26 21  1  0
M  CHG  1   2   1
M  END
$$$$
359778
     RDKit          2D

 10 10  0  0  0  0  0  0  0  0999 V2000
    3.0000    0.0000    0.0000 C   0  0  0  0  0  0  0  0  0  0  0  0
    1.5000    0.0000    0.0000 N   0  0  0  0  0  4  0  0  0  0  0  0
    0.7500   -1.2990    0.0000 C   0  0  0  0  0  0  0  0  0  0  0  0
   -0.7500   -1.2990    0.0000 C   0  0  0  0  0  0  0  0  0  0  0  0
   -1.5000    0.0000    0.0000 C   0  0  0  0  0  0  0  0  0  0  0  0
   -0.7500    1.2990    0.0000 C   0  0  0  0  0  0  0  0  0  0  0  0
    0.7500    1.2990    0.0000 C   0  0  0  0  0  0  0  0  0  0  0  0
    1.5000    2.5981    0.0000 C   0  0  0  0  0  0  0  0  0  0  0  0
    3.0000    2.5981    0.0000 N   0  0  0  0  0  0  0  0  0  0  0  0
    3.7500    3.8971    0.0000 O   0  0  0  0  0  0  0  0  0  0  0  0
  1  2  1  0
  2  3  2  0
  3  4  1  0
  4  5  2  0
  5  6  1  0
  6  7  2  0
  7  8  1  0
  8  9  2  3
  9 10  1  0
  7  2  1  0
M  CHG  1   2   1
M  END
$$$$
16510
     RDKit          2D

 25 27  0  0  0  0  0  0  0  0999 V2000
   -6.7871    2.2929    0.0000 C   0  0  0  0  0  0  0  0  0  0  0  0
   -7.0990    0.8256    0.0000 S   0  0  0  0  0  3  0  0  0  0  0  0
   -8.5256    0.3621    0.0000 O   0  0  0  0  0  1  0  0  0  0  0  0
   -5.9843   -0.1781    0.0000 C   0  0  0  0  0  0  0  0  0  0  0  0
   -4.5577    0.2855    0.0000 C   0  0  0  0  0  0  0  0  0  0  0  0
   -3.4430   -0.7182    0.0000 C   0  0  0  0  0  0  0  0  0  0  0  0
   -3.7548   -2.1855    0.0000 C   0  0  0  0  0  0  0  0  0  0  0  0
   -2.6401   -3.1891    0.0000 C   0  0  0  0  0  0  0  0  0  0  0  0
   -1.2135   -2.7256    0.0000 C   0  0  0  0  0  0  0  0  0  0  0  0
   -0.0000   -3.6073    0.0000 C   0  0  0  0  0  0  0  0  0  0  0  0
    1.2135   -2.7256    0.0000 C   0  0  0  0  0  0  0  0  0  0  0  0
    2.6401   -3.1891    0.0000 C   0  0  0  0  0  0  0  0  0  0  0  0
    2.9520   -4.6564    0.0000 C   0  0  0  0  0  0  0  0  0  0  0  0
    1.8373   -5.6601    0.0000 O   0  0  0  0  0  0  0  0  0  0  0  0
    4.3786   -5.1199    0.0000 O   0  0  0  0  0  0  0  0  0  0  0  0
    0.7500   -1.2990    0.0000 C   0  0  0  0  0  0  0  0  0  0  0  0
    1.5000    0.0000    0.0000 C   0  0  0  0  0  0  0  0  0  0  0  0
    0.7500    1.2990    0.0000 C   0  0  0  0  0  0  0  0  0  0  0  0
    1.5000    2.5981    0.0000 F   0  0  0  0  0  0  0  0  0  0  0  0
   -0.7500    1.2990    0.0000 C   0  0  0  0  0  0  0  0  0  0  0  0
   -1.5000    0.0000    0.0000 C   0  0  0  0  0  0  0  0  0  0  0  0
   -0.7500   -1.2990    0.0000 C   0  0  0  0  0  0  0  0  0  0  0  0
    0.0000   -5.1073    0.0000 C   0  0  0  0  0  0  0  0  0  0  0  0
   -5.1814   -2.6490    0.0000 C   0  0  0  0  0  0  0  0  0  0  0  0
   -6.2961   -1.6453    0.0000 C   0  0  0  0  0  0  0  0  0  0  0  0
  1  2  1  0
  2  3  1  0
  2  4  1  0
  4  5  2  0
  5  6  1  0
  6  7  2  0
  7  8  1  0
  8  9  2  0
  9 10  1  0
 10 11  2  0
 11 12  1  0
 12 13  1  0
 13 14  2  0
 13 15  1  0
 11 16  1  0
 16 17  2  0
 17 18  1  0
 18 19  1  0
 18 20  2  0
 20 21  1  0
 21 22  2  0
 10 23  1  0
  7 24  1  0
 24 25  2  0
 25  4  1  0
 22  9  1  0
 22 16  1  0
M  CHG  2   2   1   3  -1
M  END
$$$$
96107
     RDKit          2D

 19 19  0  0  0  0  0  0  0  0999 V2000
    7.5000   -2.5981    0.0000 C   0  0  0  0  0  0  0  0  0  0  0  0
    6.0000   -2.5981    0.0000 C   0  0  0  0  0  0  0  0  0  0  0  0
    5.2500   -1.2990    0.0000 C   0  0  0  0  0  0  0  0  0  0  0  0
    6.0000    0.0000    0.0000 C   0  0  0  0  0  0  0  0  0  0  0  0
    6.7500    1.2990    0.0000 N   0  0  0  0  0  0  0  0  0  0  0  0
    3.7500   -1.2990    0.0000 C   0  0  0  0  0  0  0  0  0  0  0  0
    3.0000   -2.5981    0.0000 O   0  0  0  0  0  0  0  0  0  0  0  0
    3.0000    0.0000    0.0000 N   0  0  0  0  0  0  0  0  0  0  0  0
    1.5000    0.0000    0.0000 C   0  0  0  0  0  0  0  0  0  0  0  0
    0.7500   -1.2990    0.0000 C   0  0  0  0  0  0  0  0  0  0  0  0
   -0.7500   -1.2990    0.0000 C   0  0  0  0  0  0  0  0  0  0  0  0
   -1.5000    0.0000    0.0000 C   0  0  0  0  0  0  0  0  0  0  0  0
   -0.7500    1.2990    0.0000 C   0  0  0  0  0  0  0  0  0  0  0  0
    0.7500    1.2990    0.0000 C   0  0  0  0  0  0  0  0  0  0  0  0
   -3.0000    0.0000    0.0000 C   0  0  0  0  0  0  0  0  0  0  0  0
   -4.5000    0.0000    0.0000 F   0  0  0  0  0  0  0  0  0  0  0  0
   -3.0000    1.5000    0.0000 F   0  0  0  0  0  0  0  0  0  0  0  0
   -3.0000   -1.5000    0.0000 F   0  0  0  0  0  0  0  0  0  0  0  0
    5.2500   -3.8971    0.0000 O   0  0  0  0  0  0  0  0  0  0  0  0
  1  2  1  0
  2  3  2  0
  3  4  1  0
  4  5  3  0
  3  6  1  0
  6  7  2  0
  6  8  1  0
  8  9  1  0
  9 10  2  0
 10 11  1  0
 11 12  2  0
 12 13  1  0
 13 14  2  0
 12 15  1  0
 15 16  1  0
 15 17  1  0
 15 18  1  0
  2 19  1  0
 14  9  1  0
M  END
$$$$
2208
     RDKit          2D

 22 22  0  0  0  0  0  0  0  0999 V2000
    6.0000    0.0000    0.0000 C   0  0  0  0  0  0  0  0  0  0  0  0
    5.2500   -1.2990    0.0000 C   0  0  0  0  0  0  0  0  0  0  0  0
    6.0000   -2.5981    0.0000 C   0  0  0  0  0  0  0  0  0  0  0  0
    7.5000   -2.5981    0.0000 C   0  0  0  0  0  0  0  0  0  0  0  0
    8.2500   -3.8971    0.0000 C   0  0  0  0  0  0  0  0  0  0  0  0
    9.7500   -3.8971    0.0000 C   0  0  0  0  0  0  0  0  0  0  0  0
   10.5000   -5.1962    0.0000 C   0  0  0  0  0  0  0  0  0  0  0  0
   12.0000   -5.1962    0.0000 C   0  0  0  0  0  0  0  0  0  0  0  0
   12.7500   -3.8971    0.0000 O   0  0  0  0  0  0  0  0  0  0  0  0
   12.7500   -6.4952    0.0000 O   0  0  0  0  0  0  0  0  0  0  0  0
   10.5000   -2.5981    0.0000 C   0  0  0  0  0  0  0  0  0  0  0  0
    3.7500   -1.2990    0.0000 C   0  0  0  0  0  0  0  0  0  0  0  0
    3.0000    0.0000    0.0000 C   0  0  0  0  0  0  0  0  0  0  0  0
    1.5000    0.0000    0.0000 C   0  0  0  0  0  0  0  0  0  0  0  0
    0.7500   -1.2990    0.0000 C   0  0  0  0  0  0  0  0  0  0  0  0
    1.5000   -2.5981    0.0000 C   0  0  0  0  0  0  0  0  0  0  0  0
   -0.7500   -1.2990    0.0000 C   0  0  0  0  0  0  0  0  0  0  0  0
   -1.5000    0.0000    0.0000 C   0  0  0  0  0  0  0  0  0  0  0  0
   -0.7500    1.2990    0.0000 C   0  0  0  0  0  0  0  0  0  0  0  0
    0.7500    1.2990    0.0000 C   0  0  0  0  0  0  0  0  0  0  0  0
    0.4895    2.7762    0.0000 C   0  0  0  0  0  0  0  0  0  0  0  0
    2.1595    1.8121    0.0000 C   0  0  0  0  0  0  0  0  0  0  0  0
  1  2  1  0
  2  3  2  0
  3  4  1  0
  4  5  2  0
  5  6  1  0
  6  7  2  0
  7  8  1  0
  8  9  2  0
  8 10  1  0
  6 11  1  0
  2 12  1  0
 12 13  2  0
 13 14  1  0
 14 15  2  0
 15 16  1  0
 15 17  1  0
 17 18  1  0
 18 19  1  0
 19 20  1  0
 20 21  1  0
 20 22  1  0
 20 14  1  0
M  END
$$$$
13928
     RDKit          2D

 22 22  0  0  0  0  0  0  0  0999 V2000
   10.5000   -2.5981    0.0000 C   0  0  0  0  0  0  0  0  0  0  0  0
    9.7500   -3.8971    0.0000 C   0  0  0  0  0  0  0  0  0  0  0  0
   10.5000   -5.1962    0.0000 C   0  0  0  0  0  0  0  0  0  0  0  0
    9.7500   -6.4952    0.0000 C   0  0  0  0  0  0  0  0  0  0  0  0
    8.2500   -6.4952    0.0000 O   0  0  0  0  0  0  0  0  0  0  0  0
   10.5000   -7.7942    0.0000 O   0  0  0  0  0  0  0  0  0  0  0  0
    8.2500   -3.8971    0.0000 C   0  0  0  0  0  0  0  0  0  0  0  0
    7.5000   -2.5981    0.0000 C   0  0  0  0  0  0  0  0  0  0  0  0
    6.0000   -2.5981    0.0000 C   0  0  0  0  0  0  0  0  0  0  0  0
    5.2500   -1.2990    0.0000 C   0  0  0  0  0  0  0  0  0  0  0  0
    6.0000    0.0000    0.0000 C   0  0  0  0  0  0  0  0  0  0  0  0
    3.7500   -1.2990    0.0000 C   0  0  0  0  0  0  0  0  0  0  0  0
    3.0000    0.0000    0.0000 C   0  0  0  0  0  0  0  0  0  0  0  0
    1.5000    0.0000    0.0000 C   0  0  0  0  0  0  0  0  0  0  0  0
    0.7500   -1.2990    0.0000 C   0  0  0  0  0  0  0  0  0  0  0  0
    1.5000   -2.5981    0.0000 C   0  0  0  0  0  0  0  0  0  0  0  0
   -0.7500   -1.2990    0.0000 C   0  0  0  0  0  0  0  0  0  0  0  0
   -1.5000    0.0000    0.0000 C   0  0  0  0  0  0  0  0  0  0  0  0
   -0.7500    1.2990    0.0000 C   0  0  0  0  0  0  0  0  0  0  0  0
    0.7500    1.2990    0.0000 C   0  0  0  0  0  0  0  0  0  0  0  0
    0.4895    2.7762    0.0000 C   0  0  0  0  0  0  0  0  0  0  0  0
    2.1595    1.8121    0.0000 C   0  0  0  0  0  0  0  0  0  0  0  0
  1  2  1  0
  2  3  2  0
  3  4  1  0
  4  5  2  0
  4  6  1  0
  2  7  1  0
  7  8  2  0
  8  9  1  0
  9 10  2  0
 10 11  1  0
 10 12  1  0
 12 13  2  0
 13 14  1  0
 14 15  2  0
 15 16  1  0
 15 17  1  0
 17 18  1  0
 18 19  1  0
 19 20  1  0
 20 21  1  0
 20 22  1  0
 20 14  1  0
M  END
$$$$
674817
     RDKit          2D

 26 25  0  0  0  0  0  0  0  0999 V2000
   -1.5000    0.0000    0.0000 F   0  0  0  0  0  0  0  0  0  0  0  0
    0.0000    0.0000    0.0000 C   0  0  0  0  0  0  0  0  0  0  0  0
    0.0000    1.5000    0.0000 F   0  0  0  0  0  0  0  0  0  0  0  0
   -0.0000   -1.5000    0.0000 F   0  0  0  0  0  0  0  0  0  0  0  0
    1.5000    0.0000    0.0000 C   0  0  0  0  0  0  0  0  0  0  0  0
    1.5000    1.5000    0.0000 F   0  0  0  0  0  0  0  0  0  0  0  0
    1.5000   -1.5000    0.0000 F   0  0  0  0  0  0  0  0  0  0  0  0
    3.0000    0.0000    0.0000 C   0  0  0  0  0  0  0  0  0  0  0  0
    3.0000   -1.5000    0.0000 F   0  0  0  0  0  0  0  0  0  0  0  0
    3.0000    1.5000    0.0000 F   0  0  0  0  0  0  0  0  0  0  0  0
    4.5000    0.0000    0.0000 C   0  0  0  0  0  0  0  0  0  0  0  0
    4.5000    1.5000    0.0000 F   0  0  0  0  0  0  0  0  0  0  0  0
    4.5000   -1.5000    0.0000 F   0  0  0  0  0  0  0  0  0  0  0  0
    6.0000    0.0000    0.0000 C   0  0  0  0  0  0  0  0  0  0  0  0
    6.0000    1.5000    0.0000 F   0  0  0  0  0  0  0  0  0  0  0  0
    6.0000   -1.5000    0.0000 F   0  0  0  0  0  0  0  0  0  0  0  0
    7.5000    0.0000    0.0000 C   0  0  0  0  0  0  0  0  0  0  0  0
    7.5000   -1.5000    0.0000 F   0  0  0  0  0  0  0  0  0  0  0  0
    7.5000    1.5000    0.0000 F   0  0  0  0  0  0  0  0  0  0  0  0
    9.0000    0.0000    0.0000 C   0  0  0  0  0  0  0  0  0  0  0  0
    9.0000    1.5000    0.0000 F   0  0  0  0  0  0  0  0  0  0  0  0
    9.0000   -1.5000    0.0000 F   0  0  0  0  0  0  0  0  0  0  0  0
   10.5000    0.0000    0.0000 C   0  0  0  0  0  0  0  0  0  0  0  0
   12.0000    0.0000    0.0000 F   0  0  0  0  0  0  0  0  0  0  0  0
   10.5000   -1.5000    0.0000 F   0  0  0  0  0  0  0  0  0  0  0  0
   10.5000    1.5000    0.0000 Br  0  0  0  0  0  0  0  0  0  0  0  0
  1  2  1  0
  2  3  1  0
  2  4  1  0
  2  5  1  0
  5  6  1  0
  5  7  1  0
  5  8  1  0
  8  9  1  0
  8 10  1  0
  8 11  1  0
 11 12  1  0
 11 13  1  0
 11 14  1  0
 14 15  1  0
 14 16  1  0
 14 17  1  0
 17 18  1  0
 17 19  1  0
 17 20  1  0
 20 21  1  0
 20 22  1  0
 20 23  1  0
 23 24  1  0
 23 25  1  0
 23 26  1  0
M  END
$$$$
388819
     RDKit          2D

 28 31  0  0  0  0  0  0  0  0999 V2000
  -11.8234   -8.9047    0.0000 F   0  0  0  0  0  0  0  0  0  0  0  0
  -11.5115   -7.4375    0.0000 C   0  0  0  0  0  0  0  0  0  0  0  0
  -12.9787   -7.1257    0.0000 F   0  0  0  0  0  0  0  0  0  0  0  0
  -10.0443   -7.7494    0.0000 F   0  0  0  0  0  0  0  0  0  0  0  0
  -11.1996   -5.9703    0.0000 C   0  0  0  0  0  0  0  0  0  0  0  0
  -12.3143   -4.9666    0.0000 C   0  0  0  0  0  0  0  0  0  0  0  0
  -12.0025   -3.4994    0.0000 C   0  0  0  0  0  0  0  0  0  0  0  0
  -10.5759   -3.0359    0.0000 C   0  0  0  0  0  0  0  0  0  0  0  0
   -9.4612   -4.0396    0.0000 C   0  0  0  0  0  0  0  0  0  0  0  0
   -9.7730   -5.5068    0.0000 C   0  0  0  0  0  0  0  0  0  0  0  0
   -8.0346   -3.5760    0.0000 N   0  0  0  0  0  0  0  0  0  0  0  0
   -6.9199   -4.5797    0.0000 C   0  0  0  0  0  0  0  0  0  0  0  0
   -5.4933   -4.1162    0.0000 C   0  0  0  0  0  0  0  0  0  0  0  0
   -5.1814   -2.6490    0.0000 N   0  0  0  0  0  0  0  0  0  0  0  0
   -3.7548   -2.1855    0.0000 C   0  0  0  0  0  0  0  0  0  0  0  0
   -2.6401   -3.1891    0.0000 C   0  0  0  0  0  0  0  0  0  0  0  0
   -1.2135   -2.7256    0.0000 N   0  0  0  0  0  0  0  0  0  0  0  0
   -0.0000   -3.6073    0.0000 C   0  0  0  0  0  0  0  0  0  0  0  0
    0.0000   -5.1073    0.0000 O   0  0  0  0  0  0  0  0  0  0  0  0
    1.2135   -2.7256    0.0000 N   0  0  0  0  0  0  0  0  0  0  0  0
    0.7500   -1.2990    0.0000 C   0  0  0  0  0  0  0  0  0  0  0  0
    1.5000    0.0000    0.0000 C   0  0  0  0  0  0  0  0  0  0  0  0
    0.7500    1.2990    0.0000 C   0  0  0  0  0  0  0  0  0  0  0  0
   -0.7500    1.2990    0.0000 C   0  0  0  0  0  0  0  0  0  0  0  0
   -1.5000    0.0000    0.0000 C   0  0  0  0  0  0  0  0  0  0  0  0
   -0.7500   -1.2990    0.0000 C   0  0  0  0  0  0  0  0  0  0  0  0
   -6.2961   -1.6453    0.0000 C   0  0  0  0  0  0  0  0  0  0  0  0
   -7.7227   -2.1088    0.0000 C   0  0  0  0  0  0  0  0  0  0  0  0
  1  2  1  0
  2  3  1  0
  2  4  1  0
  2  5  1  0
  5  6  2  0
  6  7  1  0
  7  8  2  0
  8  9  1  0
  9 10  2  0
  9 11  1  0
 11 12  1  0
 12 13  1  0
 13 14  1  0
 14 15  1  0
 15 16  1  0
 16 17  1  0
 17 18  1  0
 18 19  2  0
 18 20  1  0
 20 21  1  0
 21 22  2  0
 22 23  1  0
 23 24  2  0
 24 25  1  0
 25 26  2  0
 14 27  1  0
 27 28  1  0
 10  5  1  0
 28 11  1  0
 26 17  1  0
 26 21  1  0
M  END
$$$$
95970
     RDKit          2D

 24 26  0  0  0  0  0  0  0  0999 V2000
   -5.1881   -4.3372    0.0000 F   0  0  0  0  0  0  0  0  0  0  0  0
   -4.1679   -3.2376    0.0000 C   0  0  0  0  0  0  0  0  0  0  0  0
   -3.2009   -4.3843    0.0000 F   0  0  0  0  0  0  0  0  0  0  0  0
   -5.2675   -2.2173    0.0000 F   0  0  0  0  0  0  0  0  0  0  0  0
   -3.1476   -2.1380    0.0000 C   0  0  0  0  0  0  0  0  0  0  0  0
   -1.6852   -2.4718    0.0000 N   0  0  0  0  0  0  0  0  0  0  0  0
   -1.3515   -3.9342    0.0000 C   0  0  0  0  0  0  0  0  0  0  0  0
   -2.4015   -5.0054    0.0000 O   0  0  0  0  0  0  0  0  0  0  0  0
   -0.0000   -4.5850    0.0000 C   0  0  0  0  0  0  0  0  0  0  0  0
    1.3515   -3.9342    0.0000 N   0  0  0  0  0  0  0  0  0  0  0  0
    1.6852   -2.4718    0.0000 C   0  0  0  0  0  0  0  0  0  0  0  0
    3.1476   -2.1380    0.0000 C   0  0  0  0  0  0  0  0  0  0  0  0
    4.1679   -3.2376    0.0000 C   0  0  0  0  0  0  0  0  0  0  0  0
    5.6303   -2.9038    0.0000 C   0  0  0  0  0  0  0  0  0  0  0  0
    6.0724   -1.4704    0.0000 C   0  0  0  0  0  0  0  0  0  0  0  0
    5.0522   -0.3709    0.0000 C   0  0  0  0  0  0  0  0  0  0  0  0
    3.5898   -0.7046    0.0000 C   0  0  0  0  0  0  0  0  0  0  0  0
    0.7500   -1.2990    0.0000 C   0  0  0  0  0  0  0  0  0  0  0  0
    1.5000    0.0000    0.0000 C   0  0  0  0  0  0  0  0  0  0  0  0
    0.7500    1.2990    0.0000 C   0  0  0  0  0  0  0  0  0  0  0  0
    1.5000    2.5981    0.0000 Cl  0  0  0  0  0  0  0  0  0  0  0  0
   -0.7500    1.2990    0.0000 C   0  0  0  0  0  0  0  0  0  0  0  0
   -1.5000    0.0000    0.0000 C   0  0  0  0  0  0  0  0  0  0  0  0
   -0.7500   -1.2990    0.0000 C   0  0  0  0  0  0  0  0  0  0  0  0
  1  2  1  0
  2  3  1  0
  2  4  1  0
  2  5  1  0
  5  6  1  0
  6  7  1  0
  7  8  2  0
  7  9  1  0
  9 10  1  0
 10 11  2  0
 11 12  1  0
 12 13  2  0
 13 14  1  0
 14 15  2  0
 15 16  1  0
 16 17  2  0
 11 18  1  0
 18 19  2  0
 19 20  1  0
 20 21  1  0
 20 22  2  0
 22 23  1  0
 23 24  2  0
 24  6  1  0
 17 12  1  0
 24 18  1  0
M  END
$$$$
282991
     RDKit          2D

 50 55  0  0  0  0  0  0  0  0999 V2000
    7.2135   -5.3237    0.0000 F   0  0  0  0  0  0  0  0  0  0  0  0
    5.7135   -5.3237    0.0000 C   0  0  0  0  0  0  0  0  0  0  0  0
    5.7135   -6.8237    0.0000 F   0  0  0  0  0  0  0  0  0  0  0  0
    5.7135   -3.8237    0.0000 F   0  0  0  0  0  0  0  0  0  0  0  0
    4.2135   -5.3237    0.0000 C   0  0  0  0  0  0  0  0  0  0  0  0
    3.4635   -4.0247    0.0000 N   0  0  0  0  0  0  0  0  0  0  0  0
    1.9635   -4.0247    0.0000 C   0  0  0  0  0  0  0  0  0  0  0  0
    1.2135   -5.3237    0.0000 O   0  0  0  0  0  0  0  0  0  0  0  0
    1.2135   -2.7256    0.0000 C   0  0  0  0  0  0  0  0  0  0  0  0
    2.5838   -2.1155    0.0000 C   0  0  0  0  0  0  0  0  0  0  0  0
    3.7974   -2.9972    0.0000 C   0  0  0  0  0  0  0  0  0  0  0  0
    5.1677   -2.3871    0.0000 C   0  0  0  0  0  0  0  0  0  0  0  0
    6.3812   -3.2688    0.0000 C   0  0  0  0  0  0  0  0  0  0  0  0
    7.7515   -2.6587    0.0000 N   0  0  0  0  0  0  0  0  0  0  0  0
    8.9651   -3.5403    0.0000 C   0  0  0  0  0  0  0  0  0  0  0  0
   10.3354   -2.9302    0.0000 C   0  0  0  0  0  0  0  0  0  0  0  0
   10.4922   -1.4385    0.0000 C   0  0  0  0  0  0  0  0  0  0  0  0
    9.2786   -0.5568    0.0000 C   0  0  0  0  0  0  0  0  0  0  0  0
    7.9083   -1.1669    0.0000 C   0  0  0  0  0  0  0  0  0  0  0  0
   11.8625   -0.8283    0.0000 N   0  0  0  0  0  0  0  0  0  0  0  0
   13.0760   -1.7100    0.0000 C   0  0  0  0  0  0  0  0  0  0  0  0
   12.9192   -3.2018    0.0000 O   0  0  0  0  0  0  0  0  0  0  0  0
   14.4463   -1.0999    0.0000 C   0  0  0  0  0  0  0  0  0  0  0  0
   15.6599   -1.9816    0.0000 C   0  0  0  0  0  0  0  0  0  0  0  0
   17.0302   -1.3715    0.0000 C   0  0  0  0  0  0  0  0  0  0  0  0
   17.1870    0.1203    0.0000 C   0  0  0  0  0  0  0  0  0  0  0  0
   15.9734    1.0020    0.0000 C   0  0  0  0  0  0  0  0  0  0  0  0
   14.6031    0.3919    0.0000 C   0  0  0  0  0  0  0  0  0  0  0  0
   13.3896    1.2735    0.0000 C   0  0  0  0  0  0  0  0  0  0  0  0
   13.5464    2.7653    0.0000 C   0  0  0  0  0  0  0  0  0  0  0  0
   12.3329    3.6470    0.0000 C   0  0  0  0  0  0  0  0  0  0  0  0
   10.9625    3.0369    0.0000 C   0  0  0  0  0  0  0  0  0  0  0  0
   10.8058    1.5451    0.0000 C   0  0  0  0  0  0  0  0  0  0  0  0
   12.0193    0.6634    0.0000 C   0  0  0  0  0  0  0  0  0  0  0  0
    9.7490    3.9186    0.0000 C   0  0  0  0  0  0  0  0  0  0  0  0
    8.5355    4.8003    0.0000 F   0  0  0  0  0  0  0  0  0  0  0  0
   10.6307    5.1321    0.0000 F   0  0  0  0  0  0  0  0  0  0  0  0
    8.8673    2.7050    0.0000 F   0  0  0  0  0  0  0  0  0  0  0  0
    0.7500   -1.2990    0.0000 C   0  0  0  0  0  0  0  0  0  0  0  0
    1.5000    0.0000    0.0000 C   0  0  0  0  0  0  0  0  0  0  0  0
    0.7500    1.2990    0.0000 C   0  0  0  0  0  0  0  0  0  0  0  0
   -0.7500    1.2990    0.0000 C   0  0  0  0  0  0  0  0  0  0  0  0
   -1.5000    0.0000    0.0000 C   0  0  0  0  0  0  0  0  0  0  0  0
   -0.7500   -1.2990    0.0000 C   0  0  0  0  0  0  0  0  0  0  0  0
   -1.2135   -2.7256    0.0000 C   0  0  0  0  0  0  0  0  0  0  0  0
   -2.5838   -3.3357    0.0000 C   0  0  0  0  0  0  0  0  0  0  0  0
   -2.7406   -4.8275    0.0000 C   0  0  0  0  0  0  0  0  0  0  0  0
   -1.5271   -5.7092    0.0000 C   0  0  0  0  0  0  0  0  0  0  0  0
   -0.1568   -5.0991    0.0000 C   0  0  0  0  0  0  0  0  0  0  0  0
   -0.0000   -3.6073    0.0000 C   0  0  0  0  0  0  0  0  0  0  0  0
  1  2  1  0
  2  3  1  0
  2  4  1  0
  2  5  1  0
  5  6  1  0
  6  7  1  0
  7  8  2  0
  7  9  1  0
  9 10  1  0
 10 11  1  0
 11 12  1  0
 12 13  1  0
 13 14  1  0
 14 15  1  0
 15 16  1  0
 16 17  1  0
 17 18  1  0
 18 19  1  0
 17 20  1  0
 20 21  1  0
 21 22  2  0
 21 23  1  0
 23 24  2  0
 24 25  1  0
 25 26  2  0
 26 27  1  0
 27 28  2  0
 28 29  1  0
 29 30  2  0
 30 31  1  0
 31 32  2  0
 32 33  1  0
 33 34  2  0
 32 35  1  0
 35 36  1  0
 35 37  1  0
 35 38  1  0
  9 39  1  0
 39 40  2  0
 40 41  1  0
 41 42  2  0
 42 43  1  0
 43 44  2  0
 44 45  1  0
 45 46  2  0
 46 47  1  0
 47 48  2  0
 48 49  1  0
 49 50  2  0
 50  9  1  0
 19 14  1  0
 28 23  1  0
 34 29  1  0
 44 39  1  0
 50 45  1  0
M  END
$$$$
27588
     RDKit          2D

 28 29  0  0  0  0  0  0  0  0999 V2000
    6.7500   -1.2990    0.0000 F   0  0  0  0  0  0  0  0  0  0  0  0
    5.2500   -1.2990    0.0000 C   0  0  0  0  0  0  0  0  0  0  0  0
    5.2500   -2.7990    0.0000 F   0  0  0  0  0  0  0  0  0  0  0  0
    5.2500    0.2010    0.0000 F   0  0  0  0  0  0  0  0  0  0  0  0
    3.7500   -1.2990    0.0000 C   0  0  0  0  0  0  0  0  0  0  0  0
    3.0000    0.0000    0.0000 O   0  0  0  0  0  0  0  0  0  0  0  0
    1.5000    0.0000    0.0000 C   0  0  0  0  0  0  0  0  0  0  0  0
    0.7500   -1.2990    0.0000 C   0  0  0  0  0  0  0  0  0  0  0  0
   -0.7500   -1.2990    0.0000 C   0  0  0  0  0  0  0  0  0  0  0  0
   -1.5000    0.0000    0.0000 C   0  0  0  0  0  0  0  0  0  0  0  0
   -3.0000    0.0000    0.0000 O   0  0  0  0  0  0  0  0  0  0  0  0
   -3.7500   -1.2990    0.0000 C   0  0  0  0  0  0  0  0  0  0  0  0
   -5.2500   -1.2990    0.0000 C   0  0  0  0  0  0  0  0  0  0  0  0
   -6.7500   -1.2990    0.0000 F   0  0  0  0  0  0  0  0  0  0  0  0
   -5.2500   -2.7990    0.0000 F   0  0  0  0  0  0  0  0  0  0  0  0
   -5.2500    0.2010    0.0000 F   0  0  0  0  0  0  0  0  0  0  0  0
   -0.7500    1.2990    0.0000 C   0  0  0  0  0  0  0  0  0  0  0  0
    0.7500    1.2990    0.0000 C   0  0  0  0  0  0  0  0  0  0  0  0
   -1.5000    2.5981    0.0000 C   0  0  0  0  0  0  0  0  0  0  0  0
   -3.0000    2.5981    0.0000 O   0  0  0  0  0  0  0  0  0  0  0  0
   -0.7500    3.8971    0.0000 N   0  0  0  0  0  0  0  0  0  0  0  0
   -1.5000    5.1962    0.0000 C   0  0  0  0  0  0  0  0  0  0  0  0
   -0.7500    6.4952    0.0000 C   0  0  0  0  0  0  0  0  0  0  0  0
    0.7500    6.4952    0.0000 C   0  0  0  0  0  0  0  0  0  0  0  0
    1.5000    7.7942    0.0000 C   0  0  0  0  0  0  0  0  0  0  0  0
    0.7500    9.0933    0.0000 C   0  0  0  0  0  0  0  0  0  0  0  0
   -0.7500    9.0933    0.0000 C   0  0  0  0  0  0  0  0  0  0  0  0
   -1.5000    7.7942    0.0000 N   0  0  0  0  0  0  0  0  0  0  0  0
  1  2  1  0
  2  3  1  0
  2  4  1  0
  2  5  1  0
  5  6  1  0
  6  7  1  0
  7  8  2  0
  8  9  1  0
  9 10  2  0
 10 11  1  0
 11 12  1  0
 12 13  1  0
 13 14  1  0
 13 15  1  0
 13 16  1  0
 10 17  1  0
 17 18  2  0
 17 19  1  0
 19 20  2  0
 19 21  1  0
 21 22  1  0
 22 23  1  0
 23 24  1  0
 24 25  1  0
 25 26  1  0
 26 27  1  0
 27 28  1  0
 18  7  1  0
 28 23  1  0
M  END
$$$$
374719
     RDKit          2D

 21 23  0  0  0  0  0  0  0  0999 V2000
   -3.7981   -0.6697    0.0000 F   0  0  0  0  0  0  0  0  0  0  0  0
   -2.6491   -1.6339    0.0000 C   0  0  0  0  0  0  0  0  0  0  0  0
   -3.6132   -2.7830    0.0000 F   0  0  0  0  0  0  0  0  0  0  0  0
   -2.1165   -0.5418    0.0000 F   0  0  0  0  0  0  0  0  0  0  0  0
   -1.5000   -2.5981    0.0000 C   0  0  0  0  0  0  0  0  0  0  0  0
   -0.7500   -3.8971    0.0000 O   0  0  0  0  0  0  0  0  0  0  0  0
    0.7500   -3.8971    0.0000 C   0  0  0  0  0  0  0  0  0  0  0  0
    1.5000   -5.1962    0.0000 O   0  0  0  0  0  0  0  0  0  0  0  0
    1.5000   -2.5981    0.0000 N   0  0  0  0  0  0  0  0  0  0  0  0
    0.7500   -1.2990    0.0000 C   0  0  0  0  0  0  0  0  0  0  0  0
    1.5000    0.0000    0.0000 C   0  0  0  0  0  0  0  0  0  0  0  0
    0.7500    1.2990    0.0000 C   0  0  0  0  0  0  0  0  0  0  0  0
   -0.7500    1.2990    0.0000 C   0  0  0  0  0  0  0  0  0  0  0  0
   -1.5000    2.5981    0.0000 Cl  0  0  0  0  0  0  0  0  0  0  0  0
   -1.5000    0.0000    0.0000 C   0  0  0  0  0  0  0  0  0  0  0  0
   -0.7500   -1.2990    0.0000 C   0  0  0  0  0  0  0  0  0  0  0  0
   -2.6491   -3.5623    0.0000 C   0  0  0  0  0  0  0  0  0  0  0  0
   -3.7981   -4.5264    0.0000 C   0  0  0  0  0  0  0  0  0  0  0  0
   -4.9472   -5.4906    0.0000 C   0  0  0  0  0  0  0  0  0  0  0  0
   -5.4602   -6.9002    0.0000 C   0  0  0  0  0  0  0  0  0  0  0  0
   -6.4244   -5.7511    0.0000 C   0  0  0  0  0  0  0  0  0  0  0  0
  1  2  1  0
  2  3  1  0
  2  4  1  0
  2  5  1  0
  5  6  1  0
  6  7  1  0
  7  8  2  0
  7  9  1  0
  9 10  1  0
 10 11  2  0
 11 12  1  0
 12 13  2  0
 13 14  1  0
 13 15  1  0
 15 16  2  0
  5 17  1  1
 17 18  3  0
 18 19  1  0
 19 20  1  0
 20 21  1  0
 16  5  1  0
 16 10  1  0
 21 19  1  0
M  END
$$$$
321696
     RDKit          2D

 26 28  0  0  0  0  0  0  0  0999 V2000
    5.2500   -1.2990    0.0000 F   0  0  0  0  0  0  0  0  0  0  0  0
    3.7500   -1.2990    0.0000 C   0  0  0  0  0  0  0  0  0  0  0  0
    3.0000   -2.5981    0.0000 F   0  0  0  0  0  0  0  0  0  0  0  0
    3.0000    0.0000    0.0000 O   0  0  0  0  0  0  0  0  0  0  0  0
    1.5000    0.0000    0.0000 C   0  0  0  0  0  0  0  0  0  0  0  0
    0.7500   -1.2990    0.0000 C   0  0  0  0  0  0  0  0  0  0  0  0
   -0.7500   -1.2990    0.0000 C   0  0  0  0  0  0  0  0  0  0  0  0
   -1.5000    0.0000    0.0000 C   0  0  0  0  0  0  0  0  0  0  0  0
   -0.7500    1.2990    0.0000 C   0  0  0  0  0  0  0  0  0  0  0  0
    0.7500    1.2990    0.0000 C   0  0  0  0  0  0  0  0  0  0  0  0
    1.5000    2.5981    0.0000 O   0  0  0  0  0  0  0  0  0  0  0  0
    3.0000    2.5981    0.0000 C   0  0  0  0  0  0  0  0  0  0  0  0
    3.7500    3.8971    0.0000 C   0  0  0  0  0  0  0  0  0  0  0  0
    3.7500    5.3971    0.0000 C   0  0  0  0  0  0  0  0  0  0  0  0
    5.0490    4.6471    0.0000 C   0  0  0  0  0  0  0  0  0  0  0  0
   -3.0000    0.0000    0.0000 C   0  0  0  0  0  0  0  0  0  0  0  0
   -3.7500   -1.2990    0.0000 O   0  0  0  0  0  0  0  0  0  0  0  0
   -3.7500    1.2990    0.0000 N   0  0  0  0  0  0  0  0  0  0  0  0
   -5.2500    1.2990    0.0000 C   0  0  0  0  0  0  0  0  0  0  0  0
   -6.0000    2.5981    0.0000 C   0  0  0  0  0  0  0  0  0  0  0  0
   -5.2500    3.8971    0.0000 Cl  0  0  0  0  0  0  0  0  0  0  0  0
   -7.5000    2.5981    0.0000 C   0  0  0  0  0  0  0  0  0  0  0  0
   -8.2500    1.2990    0.0000 N   0  0  0  0  0  0  0  0  0  0  0  0
   -7.5000    0.0000    0.0000 C   0  0  0  0  0  0  0  0  0  0  0  0
   -6.0000    0.0000    0.0000 C   0  0  0  0  0  0  0  0  0  0  0  0
   -5.2500   -1.2990    0.0000 Cl  0  0  0  0  0  0  0  0  0  0  0  0
  1  2  1  0
  2  3  1  0
  2  4  1  0
  4  5  1  0
  5  6  2  0
  6  7  1  0
  7  8  2  0
  8  9  1  0
  9 10  2  0
 10 11  1  0
 11 12  1  0
 12 13  1  0
 13 14  1  0
 14 15  1  0
  8 16  1  0
 16 17  2  0
 16 18  1  0
 18 19  1  0
 19 20  2  0
 20 21  1  0
 20 22  1  0
 22 23  2  0
 23 24  1  0
 24 25  2  0
 25 26  1  0
 10  5  1  0
 15 13  1  0
 25 19  1  0
M  END
$$$$
364141
     RDKit          2D

 34 38  0  0  0  0  0  0  0  0999 V2000
  -16.2822   -4.8900    0.0000 F   0  0  0  0  0  0  0  0  0  0  0  0
  -14.8556   -4.4264    0.0000 C   0  0  0  0  0  0  0  0  0  0  0  0
  -14.5438   -2.9592    0.0000 C   0  0  0  0  0  0  0  0  0  0  0  0
  -13.1172   -2.4957    0.0000 C   0  0  0  0  0  0  0  0  0  0  0  0
  -12.0025   -3.4994    0.0000 C   0  0  0  0  0  0  0  0  0  0  0  0
  -12.3143   -4.9666    0.0000 C   0  0  0  0  0  0  0  0  0  0  0  0
  -13.7409   -5.4301    0.0000 C   0  0  0  0  0  0  0  0  0  0  0  0
  -10.5759   -3.0359    0.0000 C   0  0  0  0  0  0  0  0  0  0  0  0
   -9.4612   -4.0396    0.0000 C   0  0  0  0  0  0  0  0  0  0  0  0
   -8.0346   -3.5760    0.0000 C   0  0  0  0  0  0  0  0  0  0  0  0
   -6.9199   -4.5797    0.0000 C   0  0  0  0  0  0  0  0  0  0  0  0
   -5.4933   -4.1162    0.0000 N   0  0  0  0  0  0  0  0  0  0  0  0
   -4.3786   -5.1199    0.0000 C   0  0  0  0  0  0  0  0  0  0  0  0
   -2.9520   -4.6564    0.0000 C   0  0  0  0  0  0  0  0  0  0  0  0
   -2.6401   -3.1891    0.0000 C   0  0  0  0  0  0  0  0  0  0  0  0
   -3.7548   -2.1855    0.0000 C   0  0  0  0  0  0  0  0  0  0  0  0
   -5.1814   -2.6490    0.0000 C   0  0  0  0  0  0  0  0  0  0  0  0
   -1.2135   -2.7256    0.0000 N   0  0  0  0  0  0  0  0  0  0  0  0
   -0.0000   -3.6073    0.0000 C   0  0  0  0  0  0  0  0  0  0  0  0
    0.0000   -5.1073    0.0000 O   0  0  0  0  0  0  0  0  0  0  0  0
    1.2135   -2.7256    0.0000 N   0  0  0  0  0  0  0  0  0  0  0  0
    0.7500   -1.2990    0.0000 C   0  0  0  0  0  0  0  0  0  0  0  0
    1.5000    0.0000    0.0000 C   0  0  0  0  0  0  0  0  0  0  0  0
    0.7500    1.2990    0.0000 C   0  0  0  0  0  0  0  0  0  0  0  0
   -0.7500    1.2990    0.0000 C   0  0  0  0  0  0  0  0  0  0  0  0
   -1.5000    0.0000    0.0000 C   0  0  0  0  0  0  0  0  0  0  0  0
   -0.7500   -1.2990    0.0000 C   0  0  0  0  0  0  0  0  0  0  0  0
  -10.2640   -1.5686    0.0000 C   0  0  0  0  0  0  0  0  0  0  0  0
   -8.8374   -1.1051    0.0000 C   0  0  0  0  0  0  0  0  0  0  0  0
   -8.5256    0.3621    0.0000 C   0  0  0  0  0  0  0  0  0  0  0  0
   -9.6403    1.3658    0.0000 C   0  0  0  0  0  0  0  0  0  0  0  0
   -9.3284    2.8330    0.0000 F   0  0  0  0  0  0  0  0  0  0  0  0
  -11.0669    0.9023    0.0000 C   0  0  0  0  0  0  0  0  0  0  0  0
  -11.3787   -0.5649    0.0000 C   0  0  0  0  0  0  0  0  0  0  0  0
  1  2  1  0
  2  3  2  0
  3  4  1  0
  4  5  2  0
  5  6  1  0
  6  7  2  0
  5  8  1  0
  8  9  1  0
  9 10  1  0
 10 11  1  0
 11 12  1  0
 12 13  1  0
 13 14  1  0
 14 15  1  0
 15 16  1  0
 16 17  1  0
 15 18  1  0
 18 19  1  0
 19 20  2  0
 19 21  1  0
 21 22  1  0
 22 23  2  0
 23 24  1  0
 24 25  2  0
 25 26  1  0
 26 27  2  0
  8 28  1  0
 28 29  2  0
 29 30  1  0
 30 31  2  0
 31 32  1  0
 31 33  1  0
 33 34  2  0
  7  2  1  0
 17 12  1  0
 27 18  1  0
 27 22  1  0
 34 28  1  0
M  END
$$$$
6643
     RDKit          2D

 24 27  0  0  0  0  0  0  0  0999 V2000
    2.2655   10.0169    0.0000 F   0  0  0  0  0  0  0  0  0  0  0  0
    0.8389    9.5533    0.0000 C   0  0  0  0  0  0  0  0  0  0  0  0
    0.5271    8.0861    0.0000 C   0  0  0  0  0  0  0  0  0  0  0  0
   -0.8995    7.6226    0.0000 C   0  0  0  0  0  0  0  0  0  0  0  0
   -2.0143    8.6263    0.0000 C   0  0  0  0  0  0  0  0  0  0  0  0
   -1.7024   10.0935    0.0000 C   0  0  0  0  0  0  0  0  0  0  0  0
   -0.2758   10.5570    0.0000 C   0  0  0  0  0  0  0  0  0  0  0  0
   -3.4408    8.1628    0.0000 C   0  0  0  0  0  0  0  0  0  0  0  0
   -4.5556    9.1664    0.0000 C   0  0  0  0  0  0  0  0  0  0  0  0
   -5.9821    8.7029    0.0000 C   0  0  0  0  0  0  0  0  0  0  0  0
   -6.2940    7.2357    0.0000 N   0  0  0  0  0  0  0  0  0  0  0  0
   -5.1793    6.2320    0.0000 C   0  0  0  0  0  0  0  0  0  0  0  0
   -3.7527    6.6955    0.0000 C   0  0  0  0  0  0  0  0  0  0  0  0
   -2.6380    5.6918    0.0000 C   0  0  0  0  0  0  0  0  0  0  0  0
   -2.9499    4.2246    0.0000 O   0  0  0  0  0  0  0  0  0  0  0  0
   -1.8351    3.2209    0.0000 C   0  0  0  0  0  0  0  0  0  0  0  0
   -0.4086    3.6844    0.0000 C   0  0  0  0  0  0  0  0  0  0  0  0
    0.7062    2.6807    0.0000 C   0  0  0  0  0  0  0  0  0  0  0  0
    0.3943    1.2135    0.0000 C   0  0  0  0  0  0  0  0  0  0  0  0
    1.2760    0.0000    0.0000 O   0  0  0  0  0  0  0  0  0  0  0  0
    0.3943   -1.2135    0.0000 C   0  0  0  0  0  0  0  0  0  0  0  0
   -1.0323   -0.7500    0.0000 O   0  0  0  0  0  0  0  0  0  0  0  0
   -1.0323    0.7500    0.0000 C   0  0  0  0  0  0  0  0  0  0  0  0
   -2.1470    1.7537    0.0000 C   0  0  0  0  0  0  0  0  0  0  0  0
  1  2  1  0
  2  3  2  0
  3  4  1  0
  4  5  2  0
  5  6  1  0
  6  7  2  0
  8  5  1  1
  8  9  1  0
  9 10  1  0
 10 11  1  0
 11 12  1  0
 12 13  1  0
 13 14  1  6
 14 15  1  0
 15 16  1  0
 16 17  2  0
 17 18  1  0
 18 19  2  0
 19 20  1  0
 20 21  1  0
 21 22  1  0
 22 23  1  0
 23 24  2  0
  7  2  1  0
 13  8  1  0
 24 16  1  0
 23 19  1  0
M  END
$$$$
469866
     RDKit          2D

 32 36  0  0  0  0  0  0  0  0999 V2000
   -6.0000   -7.7942    0.0000 F   0  0  0  0  0  0  0  0  0  0  0  0
   -5.2500   -6.4952    0.0000 C   0  0  0  0  0  0  0  0  0  0  0  0
   -6.0000   -5.1962    0.0000 C   0  0  0  0  0  0  0  0  0  0  0  0
   -5.2500   -3.8971    0.0000 C   0  0  0  0  0  0  0  0  0  0  0  0
   -3.7500   -3.8971    0.0000 C   0  0  0  0  0  0  0  0  0  0  0  0
   -3.0000   -2.5981    0.0000 C   0  0  0  0  0  0  0  0  0  0  0  0
   -1.5000   -2.5981    0.0000 C   0  0  0  0  0  0  0  0  0  0  0  0
   -0.7500   -3.8971    0.0000 N   0  0  0  0  0  0  0  0  0  0  0  0
    0.7500   -3.8971    0.0000 N   0  0  0  0  0  0  0  0  0  0  0  0
    1.5000   -2.5981    0.0000 C   0  0  0  0  0  0  0  0  0  0  0  0
    3.0000   -2.5981    0.0000 O   0  0  0  0  0  0  0  0  0  0  0  0
    0.7500   -1.2990    0.0000 C   0  0  0  0  0  0  0  0  0  0  0  0
    1.5000    0.0000    0.0000 C   0  0  0  0  0  0  0  0  0  0  0  0
    0.7500    1.2990    0.0000 C   0  0  0  0  0  0  0  0  0  0  0  0
   -0.7500    1.2990    0.0000 C   0  0  0  0  0  0  0  0  0  0  0  0
   -1.5000    0.0000    0.0000 C   0  0  0  0  0  0  0  0  0  0  0  0
   -0.7500   -1.2990    0.0000 C   0  0  0  0  0  0  0  0  0  0  0  0
   -3.0000   -5.1962    0.0000 C   0  0  0  0  0  0  0  0  0  0  0  0
   -3.7500   -6.4952    0.0000 C   0  0  0  0  0  0  0  0  0  0  0  0
   -3.0000   -7.7942    0.0000 C   0  0  0  0  0  0  0  0  0  0  0  0
   -3.7500   -9.0933    0.0000 O   0  0  0  0  0  0  0  0  0  0  0  0
   -1.5000   -7.7942    0.0000 N   0  0  0  0  0  0  0  0  0  0  0  0
   -0.7500   -9.0933    0.0000 C   0  0  0  0  0  0  0  0  0  0  0  0
    0.7500   -9.0933    0.0000 C   0  0  0  0  0  0  0  0  0  0  0  0
    1.5000   -7.7942    0.0000 N   0  0  0  0  0  0  0  0  0  0  0  0
    0.7500   -6.4952    0.0000 C   0  0  0  0  0  0  0  0  0  0  0  0
   -0.7500   -6.4952    0.0000 C   0  0  0  0  0  0  0  0  0  0  0  0
    3.0000   -7.7942    0.0000 C   0  0  0  0  0  0  0  0  0  0  0  0
    3.7500   -6.4952    0.0000 O   0  0  0  0  0  0  0  0  0  0  0  0
    3.7500   -9.0933    0.0000 C   0  0  0  0  0  0  0  0  0  0  0  0
    5.0490   -9.8433    0.0000 C   0  0  0  0  0  0  0  0  0  0  0  0
    3.7500  -10.5933    0.0000 C   0  0  0  0  0  0  0  0  0  0  0  0
  1  2  1  0
  2  3  2  0
  3  4  1  0
  4  5  2  0
  5  6  1  0
  6  7  1  0
  7  8  2  0
  8  9  1  0
  9 10  1  0
 10 11  2  0
 10 12  1  0
 12 13  2  0
 13 14  1  0
 14 15  2  0
 15 16  1  0
 16 17  2  0
  5 18  1  0
 18 19  2  0
 19 20  1  0
 20 21  2  0
 20 22  1  0
 22 23  1  0
 23 24  1  0
 24 25  1  0
 25 26  1  0
 26 27  1  0
 25 28  1  0
 28 29  2  0
 28 30  1  0
 30 31  1  0
 31 32  1  0
 19  2  1  0
 17  7  1  0
 17 12  1  0
 27 22  1  0
 32 30  1  0
M  END
$$$$
674423
     RDKit          2D

 25 27  0  0  0  0  0  0  0  0999 V2000
   -3.7258   -4.6709    0.0000 F   0  0  0  0  0  0  0  0  0  0  0  0
   -4.1679   -3.2376    0.0000 C   0  0  0  0  0  0  0  0  0  0  0  0
   -5.6303   -2.9038    0.0000 C   0  0  0  0  0  0  0  0  0  0  0  0
   -6.0724   -1.4704    0.0000 C   0  0  0  0  0  0  0  0  0  0  0  0
   -5.0522   -0.3709    0.0000 C   0  0  0  0  0  0  0  0  0  0  0  0
   -3.5898   -0.7046    0.0000 C   0  0  0  0  0  0  0  0  0  0  0  0
   -3.1476   -2.1380    0.0000 C   0  0  0  0  0  0  0  0  0  0  0  0
   -1.6852   -2.4718    0.0000 C   0  0  0  0  0  0  0  0  0  0  0  0
   -1.3515   -3.9342    0.0000 N   0  0  0  0  0  0  0  0  0  0  0  0
   -0.0000   -4.5850    0.0000 C   0  0  0  0  0  0  0  0  0  0  0  0
    1.3515   -3.9342    0.0000 C   0  0  0  0  0  0  0  0  0  0  0  0
    2.4015   -5.0054    0.0000 S   0  0  0  0  0  0  0  0  0  0  0  0
    1.6852   -2.4718    0.0000 N   0  0  0  0  0  0  0  0  0  0  0  0
    3.1476   -2.1380    0.0000 C   0  0  0  0  0  0  0  0  0  0  0  0
    4.1679   -3.2376    0.0000 C   0  0  0  0  0  0  0  0  0  0  0  0
    5.1881   -4.3372    0.0000 F   0  0  0  0  0  0  0  0  0  0  0  0
    5.2675   -2.2173    0.0000 F   0  0  0  0  0  0  0  0  0  0  0  0
    3.2009   -4.3843    0.0000 F   0  0  0  0  0  0  0  0  0  0  0  0
    0.7500   -1.2990    0.0000 C   0  0  0  0  0  0  0  0  0  0  0  0
    1.5000    0.0000    0.0000 C   0  0  0  0  0  0  0  0  0  0  0  0
    0.7500    1.2990    0.0000 C   0  0  0  0  0  0  0  0  0  0  0  0
   -0.7500    1.2990    0.0000 C   0  0  0  0  0  0  0  0  0  0  0  0
   -1.5000    2.5981    0.0000 Cl  0  0  0  0  0  0  0  0  0  0  0  0
   -1.5000    0.0000    0.0000 C   0  0  0  0  0  0  0  0  0  0  0  0
   -0.7500   -1.2990    0.0000 C   0  0  0  0  0  0  0  0  0  0  0  0
  1  2  1  0
  2  3  2  0
  3  4  1  0
  4  5  2  0
  5  6  1  0
  6  7  2  0
  7  8  1  0
  8  9  2  0
  9 10  1  0
 10 11  1  0
 11 12  2  0
 11 13  1  0
 13 14  1  0
 14 15  1  0
 15 16  1  0
 15 17  1  0
 15 18  1  0
 13 19  1  0
 19 20  2  0
 20 21  1  0
 21 22  2  0
 22 23  1  0
 22 24  1  0
 24 25  2  0
  7  2  1  0
 25  8  1  0
 25 19  1  0
M  END
$$$$
374548
     RDKit          2D

 22 24  0  0  0  0  0  0  0  0999 V2000
    4.5000    0.0000    0.0000 N   0  0  0  0  0  0  0  0  0  0  0  0
    3.0000    0.0000    0.0000 C   0  0  0  0  0  0  0  0  0  0  0  0
    1.5000    0.0000    0.0000 C   0  0  0  0  0  0  0  0  0  0  0  0
    0.7500   -1.2990    0.0000 C   0  0  0  0  0  0  0  0  0  0  0  0
   -0.7500   -1.2990    0.0000 C   0  0  0  0  0  0  0  0  0  0  0  0
   -1.5000    0.0000    0.0000 C   0  0  0  0  0  0  0  0  0  0  0  0
   -0.7500    1.2990    0.0000 C   0  0  0  0  0  0  0  0  0  0  0  0
    0.7500    1.2990    0.0000 C   0  0  0  0  0  0  0  0  0  0  0  0
   -3.0000    0.0000    0.0000 C   0  0  0  0  0  0  0  0  0  0  0  0
   -3.7500    1.2990    0.0000 C   0  0  0  0  0  0  0  0  0  0  0  0
   -3.0000    2.5981    0.0000 C   0  0  0  0  0  0  0  0  0  0  0  0
   -3.7500    3.8971    0.0000 C   0  0  0  0  0  0  0  0  0  0  0  0
   -5.2500    3.8971    0.0000 C   0  0  0  0  0  0  0  0  0  0  0  0
   -6.0000    2.5981    0.0000 C   0  0  0  0  0  0  0  0  0  0  0  0
   -5.2500    1.2990    0.0000 C   0  0  0  0  0  0  0  0  0  0  0  0
   -6.0000    5.1962    0.0000 C   0  0  0  0  0  0  0  0  0  0  0  0
   -6.7500    6.4952    0.0000 N   0  0  0  0  0  0  0  0  0  0  0  0
   -3.7500   -1.2990    0.0000 N   0  0  0  0  0  0  0  0  0  0  0  0
   -3.1399   -2.6694    0.0000 C   0  0  0  0  0  0  0  0  0  0  0  0
   -4.2546   -3.6731    0.0000 N   0  0  0  0  0  0  0  0  0  0  0  0
   -5.5537   -2.9231    0.0000 C   0  0  0  0  0  0  0  0  0  0  0  0
   -5.2418   -1.4558    0.0000 N   0  0  0  0  0  0  0  0  0  0  0  0
  1  2  3  0
  2  3  1  0
  3  4  2  0
  4  5  1  0
  5  6  2  0
  6  7  1  0
  7  8  2  0
  6  9  1  0
  9 10  1  0
 10 11  2  0
 11 12  1  0
 12 13  2  0
 13 14  1  0
 14 15  2  0
 13 16  1  0
 16 17  3  0
  9 18  1  0
 18 19  1  0
 19 20  2  0
 20 21  1  0
 21 22  2  0
  8  3  1  0
 15 10  1  0
 22 18  1  0
M  END
$$$$
1153572
     RDKit          2D

 23 26  0  0  0  0  0  0  0  0999 V2000
  -10.5923    4.1480    0.0000 N   0  0  0  0  0  0  0  0  0  0  0  0
   -9.1657    3.6844    0.0000 C   0  0  0  0  0  0  0  0  0  0  0  0
   -7.7391    3.2209    0.0000 C   0  0  0  0  0  0  0  0  0  0  0  0
   -7.4272    1.7537    0.0000 C   0  0  0  0  0  0  0  0  0  0  0  0
   -8.5419    0.7500    0.0000 C   0  0  0  0  0  0  0  0  0  0  0  0
   -8.3851   -0.7418    0.0000 C   0  0  0  0  0  0  0  0  0  0  0  0
   -9.7555   -1.3519    0.0000 C   0  0  0  0  0  0  0  0  0  0  0  0
  -10.7592   -0.2372    0.0000 C   0  0  0  0  0  0  0  0  0  0  0  0
  -10.0092    1.0619    0.0000 C   0  0  0  0  0  0  0  0  0  0  0  0
   -6.0006    1.2902    0.0000 N   0  0  0  0  0  0  0  0  0  0  0  0
   -4.7871    2.1718    0.0000 C   0  0  0  0  0  0  0  0  0  0  0  0
   -3.5736    1.2902    0.0000 C   0  0  0  0  0  0  0  0  0  0  0  0
   -4.0371   -0.1364    0.0000 C   0  0  0  0  0  0  0  0  0  0  0  0
   -5.5371   -0.1364    0.0000 N   0  0  0  0  0  0  0  0  0  0  0  0
   -2.1470    1.7537    0.0000 C   0  0  0  0  0  0  0  0  0  0  0  0
   -1.8351    3.2209    0.0000 N   0  0  0  0  0  0  0  0  0  0  0  0
   -0.4086    3.6844    0.0000 C   0  0  0  0  0  0  0  0  0  0  0  0
    0.7062    2.6807    0.0000 N   0  0  0  0  0  0  0  0  0  0  0  0
    0.3943    1.2135    0.0000 C   0  0  0  0  0  0  0  0  0  0  0  0
    1.2760    0.0000    0.0000 N   0  0  0  0  0  0  0  0  0  0  0  0
    0.3943   -1.2135    0.0000 C   0  0  0  0  0  0  0  0  0  0  0  0
   -1.0323   -0.7500    0.0000 C   0  0  0  0  0  0  0  0  0  0  0  0
   -1.0323    0.7500    0.0000 C   0  0  0  0  0  0  0  0  0  0  0  0
  1  2  3  0
  2  3  1  0
  4  3  1  1
  4  5  1  0
  5  6  1  0
  6  7  1  0
  7  8  1  0
  8  9  1  0
  4 10  1  0
 10 11  1  0
 11 12  2  0
 12 13  1  0
 13 14  2  0
 12 15  1  0
 15 16  2  0
 16 17  1  0
 17 18  2  0
 18 19  1  0
 19 20  1  0
 20 21  1  0
 21 22  2  0
 22 23  1  0
  9  5  1  0
 14 10  1  0
 23 15  1  0
 23 19  2  0
M  END
$$$$
56752
     RDKit          2D

  4  3  0  0  0  0  0  0  0  0999 V2000
    1.2990    0.7500    0.0000 N   0  0  0  0  0  0  0  0  0  0  0  0
    0.0000    0.0000    0.0000 C   0  0  0  0  0  0  0  0  0  0  0  0
   -0.0000   -1.5000    0.0000 N   0  0  0  0  0  0  0  0  0  0  0  0
   -1.2990    0.7500    0.0000 N   0  0  0  0  0  0  0  0  0  0  0  0
  1  2  1  0
  2  3  2  0
  2  4  1  0
M  END
$$$$
89526
     RDKit          2D

 15 15  0  0  0  0  0  0  0  0999 V2000
    6.0000   -2.5981    0.0000 N   0  0  0  0  0  0  0  0  0  0  0  0
    5.2500   -1.2990    0.0000 C   0  0  0  0  0  0  0  0  0  0  0  0
    6.0000    0.0000    0.0000 N   0  0  0  0  0  0  0  0  0  0  0  0
    3.7500   -1.2990    0.0000 N   0  0  0  0  0  0  0  0  0  0  0  0
    3.0000    0.0000    0.0000 C   0  0  0  0  0  0  0  0  0  0  0  0
    3.7500    1.2990    0.0000 O   0  0  0  0  0  0  0  0  0  0  0  0
    1.5000    0.0000    0.0000 C   0  0  0  0  0  0  0  0  0  0  0  0
    0.7500   -1.2990    0.0000 N   0  0  0  0  0  0  0  0  0  0  0  0
   -0.7500   -1.2990    0.0000 C   0  0  0  0  0  0  0  0  0  0  0  0
   -1.5000   -2.5981    0.0000 Cl  0  0  0  0  0  0  0  0  0  0  0  0
   -1.5000    0.0000    0.0000 C   0  0  0  0  0  0  0  0  0  0  0  0
   -3.0000    0.0000    0.0000 N   0  0  0  0  0  0  0  0  0  0  0  0
   -0.7500    1.2990    0.0000 N   0  0  0  0  0  0  0  0  0  0  0  0
    0.7500    1.2990    0.0000 C   0  0  0  0  0  0  0  0  0  0  0  0
    1.5000    2.5981    0.0000 N   0  0  0  0  0  0  0  0  0  0  0  0
  1  2  1  0
  2  3  2  0
  2  4  1  0
  4  5  1  0
  5  6  2  0
  5  7  1  0
  7  8  2  0
  8  9  1  0
  9 10  1  0
  9 11  2  0
 11 12  1  0
 11 13  1  0
 13 14  2  0
 14 15  1  0
 14  7  1  0
M  END
$$$$
66029
     RDKit          2D

 15 15  0  0  0  0  0  0  0  0999 V2000
    7.5000   -2.5981    0.0000 N   0  0  0  0  0  0  0  0  0  0  0  0
    6.0000   -2.5981    0.0000 C   0  0  0  0  0  0  0  0  0  0  0  0
    5.2500   -3.8971    0.0000 N   0  0  0  0  0  0  0  0  0  0  0  0
    5.2500   -1.2990    0.0000 N   0  0  0  0  0  0  0  0  0  0  0  0
    3.7500   -1.2990    0.0000 C   0  0  0  0  0  0  0  0  0  0  0  0
    3.0000   -2.5981    0.0000 O   0  0  0  0  0  0  0  0  0  0  0  0
    3.0000    0.0000    0.0000 C   0  0  0  0  0  0  0  0  0  0  0  0
    1.5000    0.0000    0.0000 C   0  0  0  0  0  0  0  0  0  0  0  0
    0.7500   -1.2990    0.0000 C   0  0  0  0  0  0  0  0  0  0  0  0
    1.5000   -2.5981    0.0000 Cl  0  0  0  0  0  0  0  0  0  0  0  0
   -0.7500   -1.2990    0.0000 C   0  0  0  0  0  0  0  0  0  0  0  0
   -1.5000    0.0000    0.0000 C   0  0  0  0  0  0  0  0  0  0  0  0
   -0.7500    1.2990    0.0000 C   0  0  0  0  0  0  0  0  0  0  0  0
    0.7500    1.2990    0.0000 C   0  0  0  0  0  0  0  0  0  0  0  0
    1.5000    2.5981    0.0000 Cl  0  0  0  0  0  0  0  0  0  0  0  0
  1  2  1  0
  2  3  2  0
  2  4  1  0
  4  5  1  0
  5  6  2  0
  5  7  1  0
  7  8  1  0
  8  9  2  0
  9 10  1  0
  9 11  1  0
 11 12  2  0
 12 13  1  0
 13 14  2  0
 14 15  1  0
 14  8  1  0
M  END
$$$$
78303
     RDKit          2D

 20 20  0  0  0  0  0  0  0  0999 V2000
    5.0260   -1.2990    0.0000 N   0  0  0  0  0  0  0  0  0  0  0  0
    3.5260   -1.2990    0.0000 C   0  0  0  0  0  0  0  0  0  0  0  0
    2.7760   -2.5981    0.0000 N   0  0  0  0  0  0  0  0  0  0  0  0
    2.7760    0.0000    0.0000 N   0  0  0  0  0  0  0  0  0  0  0  0
    1.2760    0.0000    0.0000 C   0  0  0  0  0  0  0  0  0  0  0  0
    0.3943    1.2135    0.0000 N   0  0  0  0  0  0  0  0  0  0  0  0
   -1.0323    0.7500    0.0000 C   0  0  0  0  0  0  0  0  0  0  0  0
   -2.2458    1.6317    0.0000 C   0  0  0  0  0  0  0  0  0  0  0  0
   -2.0890    3.1235    0.0000 S   0  0  0  0  0  0  0  0  0  0  0  0
   -3.3025    4.0051    0.0000 C   0  0  0  0  0  0  0  0  0  0  0  0
   -3.1458    5.4969    0.0000 C   0  0  0  0  0  0  0  0  0  0  0  0
   -4.3593    6.3786    0.0000 C   0  0  0  0  0  0  0  0  0  0  0  0
   -4.2025    7.8704    0.0000 N   0  0  0  0  0  0  0  0  0  0  0  0
   -5.7296    5.7685    0.0000 N   0  0  0  0  0  0  0  0  0  0  0  0
   -6.9431    6.6502    0.0000 S   0  0  0  0  0  0  0  0  0  0  0  0
   -6.0614    7.8637    0.0000 O   0  0  0  0  0  0  0  0  0  0  0  0
   -7.8248    5.4366    0.0000 O   0  0  0  0  0  0  0  0  0  0  0  0
   -8.1566    7.5319    0.0000 N   0  0  0  0  0  0  0  0  0  0  0  0
   -1.0323   -0.7500    0.0000 C   0  0  0  0  0  0  0  0  0  0  0  0
    0.3943   -1.2135    0.0000 S   0  0  0  0  0  0  0  0  0  0  0  0
  1  2  1  0
  2  3  2  0
  2  4  1  0
  4  5  1  0
  5  6  2  0
  6  7  1  0
  7  8  1  0
  8  9  1  0
  9 10  1  0
 10 11  1  0
 11 12  1  0
 12 13  2  0
 12 14  1  0
 14 15  1  0
 15 16  2  0
 15 17  2  0
 15 18  1  0
  7 19  2  0
 19 20  1  0
 20  5  1  0
M  END
$$$$
123976
     RDKit          2D

 15 16  0  0  0  0  0  0  0  0999 V2000
   -1.7996   -7.8768    0.0000 N   0  0  0  0  0  0  0  0  0  0  0  0
   -0.4293   -7.2667    0.0000 C   0  0  0  0  0  0  0  0  0  0  0  0
    0.7842   -8.1484    0.0000 N   0  0  0  0  0  0  0  0  0  0  0  0
   -0.2725   -5.7749    0.0000 N   0  0  0  0  0  0  0  0  0  0  0  0
    1.0978   -5.1648    0.0000 C   0  0  0  0  0  0  0  0  0  0  0  0
    1.2546   -3.6731    0.0000 C   0  0  0  0  0  0  0  0  0  0  0  0
    2.5537   -2.9231    0.0000 C   0  0  0  0  0  0  0  0  0  0  0  0
    2.2418   -1.4558    0.0000 O   0  0  0  0  0  0  0  0  0  0  0  0
    0.7500   -1.2990    0.0000 C   0  0  0  0  0  0  0  0  0  0  0  0
    1.5000    0.0000    0.0000 C   0  0  0  0  0  0  0  0  0  0  0  0
    0.7500    1.2990    0.0000 C   0  0  0  0  0  0  0  0  0  0  0  0
   -0.7500    1.2990    0.0000 C   0  0  0  0  0  0  0  0  0  0  0  0
   -1.5000    0.0000    0.0000 C   0  0  0  0  0  0  0  0  0  0  0  0
   -0.7500   -1.2990    0.0000 C   0  0  0  0  0  0  0  0  0  0  0  0
    0.1399   -2.6694    0.0000 O   0  0  0  0  0  0  0  0  0  0  0  0
  1  2  1  0
  2  3  2  0
  2  4  1  0
  4  5  1  0
  5  6  1  0
  6  7  1  0
  7  8  1  0
  8  9  1  0
  9 10  1  0
 10 11  1  0
 11 12  1  0
 12 13  1  0
 13 14  1  0
  9 15  1  0
 15  6  1  0
 14  9  1  0
M  END
$$$$
674545
     RDKit          2D

 20 20  0  0  0  0  0  0  0  0999 V2000
   -1.7996   -7.8768    0.0000 N   0  0  0  0  0  0  0  0  0  0  0  0
   -0.4293   -7.2667    0.0000 C   0  0  0  0  0  0  0  0  0  0  0  0
    0.7842   -8.1484    0.0000 N   0  0  0  0  0  0  0  0  0  0  0  0
   -0.2725   -5.7749    0.0000 N   0  0  0  0  0  0  0  0  0  0  0  0
    1.0978   -5.1648    0.0000 C   0  0  0  0  0  0  0  0  0  0  0  0
    1.2546   -3.6731    0.0000 C   0  0  0  0  0  0  0  0  0  0  0  0
    2.5537   -2.9231    0.0000 C   0  0  0  0  0  0  0  0  0  0  0  0
    2.2418   -1.4558    0.0000 O   0  0  0  0  0  0  0  0  0  0  0  0
    0.7500   -1.2990    0.0000 C   0  0  0  0  0  0  0  0  0  0  0  0
    1.5000    0.0000    0.0000 C   0  0  0  0  0  0  0  0  0  0  0  0
    0.7500    1.2990    0.0000 C   0  0  0  0  0  0  0  0  0  0  0  0
   -0.7500    1.2990    0.0000 C   0  0  0  0  0  0  0  0  0  0  0  0
   -1.5000    0.0000    0.0000 C   0  0  0  0  0  0  0  0  0  0  0  0
   -0.7500   -1.2990    0.0000 C   0  0  0  0  0  0  0  0  0  0  0  0
    0.1399   -2.6694    0.0000 O   0  0  0  0  0  0  0  0  0  0  0  0
    3.5537    0.0000    0.0000 O   0  0  0  0  0  0  0  0  0  0  0  0
    4.8527    0.7500    0.0000 S   0  0  0  0  0  0  0  0  0  0  0  0
    5.6027   -0.5490    0.0000 O   0  0  0  0  0  0  0  0  0  0  0  0
    4.1027    2.0490    0.0000 O   0  0  0  0  0  0  0  0  0  0  0  0
    6.1517    1.5000    0.0000 O   0  0  0  0  0  0  0  0  0  0  0  0
  1  2  1  0
  2  3  2  0
  2  4  1  0
  4  5  1  0
  5  6  1  0
  6  7  1  0
  7  8  1  0
  8  9  1  0
  9 10  1  0
 10 11  1  0
 11 12  1  0
 12 13  1  0
 13 14  1  0
  9 15  1  0
 16 17  1  0
 17 18  2  0
 17 19  2  0
 17 20  1  0
 15  6  1  0
 14  9  1  0
M  END
$$$$
43086
     RDKit          2D

 14 14  0  0  0  0  0  0  0  0999 V2000
    7.9598   -2.5981    0.0000 N   0  0  0  0  0  0  0  0  0  0  0  0
    6.4598   -2.5981    0.0000 C   0  0  0  0  0  0  0  0  0  0  0  0
    5.7098   -3.8971    0.0000 N   0  0  0  0  0  0  0  0  0  0  0  0
    5.7098   -1.2990    0.0000 N   0  0  0  0  0  0  0  0  0  0  0  0
    4.2098   -1.2990    0.0000 C   0  0  0  0  0  0  0  0  0  0  0  0
    3.4598   -0.0000    0.0000 C   0  0  0  0  0  0  0  0  0  0  0  0
    1.9598    0.0000    0.0000 N   0  0  0  0  0  0  0  0  0  0  0  0
    1.3858   -1.3858    0.0000 C   0  0  0  0  0  0  0  0  0  0  0  0
   -0.0000   -1.9598    0.0000 C   0  0  0  0  0  0  0  0  0  0  0  0
   -1.3858   -1.3858    0.0000 C   0  0  0  0  0  0  0  0  0  0  0  0
   -1.9598    0.0000    0.0000 C   0  0  0  0  0  0  0  0  0  0  0  0
   -1.3858    1.3858    0.0000 C   0  0  0  0  0  0  0  0  0  0  0  0
    0.0000    1.9598    0.0000 C   0  0  0  0  0  0  0  0  0  0  0  0
    1.3858    1.3858    0.0000 C   0  0  0  0  0  0  0  0  0  0  0  0
  1  2  1  0
  2  3  2  0
  2  4  1  0
  4  5  1  0
  5  6  1  0
  6  7  1  0
  7  8  1  0
  8  9  1  0
  9 10  1  0
 10 11  1  0
 11 12  1  0
 12 13  1  0
 13 14  1  0
 14  7  1  0
M  END
$$$$
289505
     RDKit          2D

 19 18  0  0  0  0  0  0  0  0999 V2000
    7.9598   -2.5981    0.0000 N   0  0  0  0  0  0  0  0  0  0  0  0
    6.4598   -2.5981    0.0000 C   0  0  0  0  0  0  0  0  0  0  0  0
    5.7098   -3.8971    0.0000 N   0  0  0  0  0  0  0  0  0  0  0  0
    5.7098   -1.2990    0.0000 N   0  0  0  0  0  0  0  0  0  0  0  0
    4.2098   -1.2990    0.0000 C   0  0  0  0  0  0  0  0  0  0  0  0
    3.4598   -0.0000    0.0000 C   0  0  0  0  0  0  0  0  0  0  0  0
    1.9598    0.0000    0.0000 N   0  0  0  0  0  0  0  0  0  0  0  0
    1.3858   -1.3858    0.0000 C   0  0  0  0  0  0  0  0  0  0  0  0
   -0.0000   -1.9598    0.0000 C   0  0  0  0  0  0  0  0  0  0  0  0
   -1.3858   -1.3858    0.0000 C   0  0  0  0  0  0  0  0  0  0  0  0
   -1.9598    0.0000    0.0000 C   0  0  0  0  0  0  0  0  0  0  0  0
   -1.3858    1.3858    0.0000 C   0  0  0  0  0  0  0  0  0  0  0  0
    0.0000    1.9598    0.0000 C   0  0  0  0  0  0  0  0  0  0  0  0
    1.3858    1.3858    0.0000 C   0  0  0  0  0  0  0  0  0  0  0  0
    0.0000    3.5089    0.0000 O   0  0  0  0  0  0  0  0  0  0  0  0
    1.2990    4.2589    0.0000 S   0  0  0  0  0  0  0  0  0  0  0  0
    2.0490    2.9598    0.0000 O   0  0  0  0  0  0  0  0  0  0  0  0
    0.5490    5.5579    0.0000 O   0  0  0  0  0  0  0  0  0  0  0  0
    2.5981    5.0089    0.0000 O   0  0  0  0  0  0  0  0  0  0  0  0
  1  2  1  0
  2  3  2  0
  2  4  1  0
  4  5  1  0
  5  6  1  0
  6  7  1  0
  7  8  1  0
  8  9  1  0
  9 10  1  0
 10 11  1  0
 11 12  1  0
 12 13  1  0
 13 14  1  0
 15 16  1  0
 16 17  2  0
 16 18  2  0
 16 19  1  0
 14  7  1  0
M  END
$$$$
1202
     RDKit          2D

 14 14  0  0  0  0  0  0  0  0999 V2000
    7.5000   -2.5981    0.0000 N   0  0  0  0  0  0  0  0  0  0  0  0
    6.0000   -2.5981    0.0000 C   0  0  0  0  0  0  0  0  0  0  0  0
    5.2500   -3.8971    0.0000 N   0  0  0  0  0  0  0  0  0  0  0  0
    5.2500   -1.2990    0.0000 N   0  0  0  0  0  0  0  0  0  0  0  0
    3.7500   -1.2990    0.0000 N   0  0  0  0  0  0  0  0  0  0  0  0
    3.0000    0.0000    0.0000 C   0  0  0  0  0  0  0  0  0  0  0  0
    1.5000    0.0000    0.0000 C   0  0  0  0  0  0  0  0  0  0  0  0
    0.7500   -1.2990    0.0000 C   0  0  0  0  0  0  0  0  0  0  0  0
    1.5000   -2.5981    0.0000 Cl  0  0  0  0  0  0  0  0  0  0  0  0
   -0.7500   -1.2990    0.0000 C   0  0  0  0  0  0  0  0  0  0  0  0
   -1.5000    0.0000    0.0000 C   0  0  0  0  0  0  0  0  0  0  0  0
   -0.7500    1.2990    0.0000 C   0  0  0  0  0  0  0  0  0  0  0  0
    0.7500    1.2990    0.0000 C   0  0  0  0  0  0  0  0  0  0  0  0
    1.5000    2.5981    0.0000 Cl  0  0  0  0  0  0  0  0  0  0  0  0
  1  2  1  0
  2  3  2  0
  2  4  1  0
  4  5  1  0
  5  6  2  0
  6  7  1  0
  7  8  2  0
  8  9  1  0
  8 10  1  0
 10 11  2  0
 11 12  1  0
 12 13  2  0
 13 14  1  0
 13  7  1  0
M  END
$$$$
291960
     RDKit          2D

 32 36  0  0  0  0  0  0  0  0999 V2000
   -8.9888    5.7376    0.0000 N   0  0  0  0  0  0  0  0  0  0  0  0
   -7.6185    6.3477    0.0000 C   0  0  0  0  0  0  0  0  0  0  0  0
   -6.4050    5.4660    0.0000 O   0  0  0  0  0  0  0  0  0  0  0  0
   -7.4617    7.8395    0.0000 C   0  0  0  0  0  0  0  0  0  0  0  0
   -5.9699    7.6827    0.0000 C   0  0  0  0  0  0  0  0  0  0  0  0
   -4.9662    8.7974    0.0000 C   0  0  0  0  0  0  0  0  0  0  0  0
   -3.5959    8.1873    0.0000 C   0  0  0  0  0  0  0  0  0  0  0  0
   -3.7527    6.6955    0.0000 N   0  0  0  0  0  0  0  0  0  0  0  0
   -2.6380    5.6918    0.0000 C   0  0  0  0  0  0  0  0  0  0  0  0
   -2.9499    4.2246    0.0000 C   0  0  0  0  0  0  0  0  0  0  0  0
   -1.8351    3.2209    0.0000 C   0  0  0  0  0  0  0  0  0  0  0  0
   -0.4086    3.6844    0.0000 C   0  0  0  0  0  0  0  0  0  0  0  0
    0.7062    2.6807    0.0000 C   0  0  0  0  0  0  0  0  0  0  0  0
    0.3943    1.2135    0.0000 C   0  0  0  0  0  0  0  0  0  0  0  0
    1.2760    0.0000    0.0000 O   0  0  0  0  0  0  0  0  0  0  0  0
    0.3943   -1.2135    0.0000 C   0  0  0  0  0  0  0  0  0  0  0  0
   -1.0323   -0.7500    0.0000 C   0  0  0  0  0  0  0  0  0  0  0  0
   -1.0323    0.7500    0.0000 C   0  0  0  0  0  0  0  0  0  0  0  0
   -2.1470    1.7537    0.0000 C   0  0  0  0  0  0  0  0  0  0  0  0
   -5.2199    6.3837    0.0000 C   0  0  0  0  0  0  0  0  0  0  0  0
   -8.9535    7.9963    0.0000 C   0  0  0  0  0  0  0  0  0  0  0  0
   -9.5636    9.3666    0.0000 C   0  0  0  0  0  0  0  0  0  0  0  0
  -11.0554    9.5234    0.0000 C   0  0  0  0  0  0  0  0  0  0  0  0
  -11.9371    8.3099    0.0000 C   0  0  0  0  0  0  0  0  0  0  0  0
  -11.3270    6.9396    0.0000 C   0  0  0  0  0  0  0  0  0  0  0  0
   -9.8352    6.7828    0.0000 C   0  0  0  0  0  0  0  0  0  0  0  0
   -7.3049    9.3313    0.0000 C   0  0  0  0  0  0  0  0  0  0  0  0
   -5.9346    9.9414    0.0000 C   0  0  0  0  0  0  0  0  0  0  0  0
   -5.7778   11.4332    0.0000 C   0  0  0  0  0  0  0  0  0  0  0  0
   -6.9913   12.3148    0.0000 C   0  0  0  0  0  0  0  0  0  0  0  0
   -8.3616   11.7047    0.0000 C   0  0  0  0  0  0  0  0  0  0  0  0
   -8.5184   10.2130    0.0000 C   0  0  0  0  0  0  0  0  0  0  0  0
  1  2  1  0
  2  3  2  0
  2  4  1  0
  5  4  1  6
  5  6  1  0
  6  7  1  0
  7  8  1  0
  8  9  1  0
  9 10  1  0
 10 11  1  0
 11 12  2  0
 12 13  1  0
 13 14  2  0
 14 15  1  0
 15 16  1  0
 16 17  1  0
 17 18  1  0
 18 19  2  0
  8 20  1  0
  4 21  1  0
 21 22  2  0
 22 23  1  0
 23 24  2  0
 24 25  1  0
 25 26  2  0
  4 27  1  0
 27 28  2  0
 28 29  1  0
 29 30  2  0
 30 31  1  0
 31 32  2  0
 20  5  1  0
 19 11  1  0
 18 14  1  0
 26 21  1  0
 32 27  1  0
M  END
$$$$
675705
     RDKit          2D

 17 18  0  0  0  0  0  0  0  0999 V2000
   -0.8113   -8.6446    0.0000 N   0  0  0  0  0  0  0  0  0  0  0  0
    0.4022   -7.7629    0.0000 C   0  0  0  0  0  0  0  0  0  0  0  0
    1.7725   -8.3730    0.0000 O   0  0  0  0  0  0  0  0  0  0  0  0
    0.2454   -6.2711    0.0000 C   0  0  0  0  0  0  0  0  0  0  0  0
    1.3601   -5.2674    0.0000 C   0  0  0  0  0  0  0  0  0  0  0  0
    0.7500   -3.8971    0.0000 N   0  0  0  0  0  0  0  0  0  0  0  0
    1.5000   -2.5981    0.0000 C   0  0  0  0  0  0  0  0  0  0  0  0
    0.7500   -1.2990    0.0000 C   0  0  0  0  0  0  0  0  0  0  0  0
    1.5000    0.0000    0.0000 C   0  0  0  0  0  0  0  0  0  0  0  0
    3.0000    0.0000    0.0000 F   0  0  0  0  0  0  0  0  0  0  0  0
    0.7500    1.2990    0.0000 C   0  0  0  0  0  0  0  0  0  0  0  0
   -0.7500    1.2990    0.0000 C   0  0  0  0  0  0  0  0  0  0  0  0
   -1.5000    0.0000    0.0000 C   0  0  0  0  0  0  0  0  0  0  0  0
   -0.7500   -1.2990    0.0000 C   0  0  0  0  0  0  0  0  0  0  0  0
   -1.5000   -2.5981    0.0000 F   0  0  0  0  0  0  0  0  0  0  0  0
   -0.7418   -4.0539    0.0000 N   0  0  0  0  0  0  0  0  0  0  0  0
   -1.0537   -5.5211    0.0000 N   0  0  0  0  0  0  0  0  0  0  0  0
  1  2  1  0
  2  3  2  0
  2  4  1  0
  4  5  2  0
  5  6  1  0
  6  7  1  0
  7  8  1  0
  8  9  2  0
  9 10  1  0
  9 11  1  0
 11 12  2  0
 12 13  1  0
 13 14  2  0
 14 15  1  0
  6 16  1  0
 16 17  2  0
 17  4  1  0
 14  8  1  0
M  END
$$$$
23522
     RDKit          2D

  9  9  0  0  0  0  0  0  0  0999 V2000
    3.7500   -1.2990    0.0000 N   0  0  0  0  0  0  0  0  0  0  0  0
    3.0000    0.0000    0.0000 C   0  0  0  0  0  0  0  0  0  0  0  0
    3.7500    1.2990    0.0000 O   0  0  0  0  0  0  0  0  0  0  0  0
    1.5000    0.0000    0.0000 C   0  0  0  0  0  0  0  0  0  0  0  0
    0.7500   -1.2990    0.0000 C   0  0  0  0  0  0  0  0  0  0  0  0
   -0.7500   -1.2990    0.0000 N   0  0  0  0  0  0  0  0  0  0  0  0
   -1.5000    0.0000    0.0000 C   0  0  0  0  0  0  0  0  0  0  0  0
   -0.7500    1.2990    0.0000 C   0  0  0  0  0  0  0  0  0  0  0  0
    0.7500    1.2990    0.0000 N   0  0  0  0  0  0  0  0  0  0  0  0
  1  2  1  0
  2  3  2  0
  2  4  1  0
  4  5  2  0
  5  6  1  0
  6  7  2  0
  7  8  1  0
  8  9  2  0
  9  4  1  0
M  END
$$$$
485738
     RDKit          2D

 17 18  0  0  0  0  0  0  0  0999 V2000
    3.5260   -1.2990    0.0000 N   0  0  0  0  0  0  0  0  0  0  0  0
    2.7760    0.0000    0.0000 C   0  0  0  0  0  0  0  0  0  0  0  0
    3.5260    1.2990    0.0000 O   0  0  0  0  0  0  0  0  0  0  0  0
    1.2760    0.0000    0.0000 C   0  0  0  0  0  0  0  0  0  0  0  0
    0.3943    1.2135    0.0000 N   0  0  0  0  0  0  0  0  0  0  0  0
   -1.0323    0.7500    0.0000 C   0  0  0  0  0  0  0  0  0  0  0  0
   -1.0323   -0.7500    0.0000 N   0  0  0  0  0  0  0  0  0  0  0  0
    0.3943   -1.2135    0.0000 N   0  0  0  0  0  0  0  0  0  0  0  0
   -2.2458   -1.6317    0.0000 C   0  0  0  0  0  0  0  0  0  0  0  0
   -2.2458   -3.1317    0.0000 O   0  0  0  0  0  0  0  0  0  0  0  0
   -3.6724   -3.5952    0.0000 C   0  0  0  0  0  0  0  0  0  0  0  0
   -4.1359   -5.0218    0.0000 C   0  0  0  0  0  0  0  0  0  0  0  0
   -5.6031   -5.3337    0.0000 O   0  0  0  0  0  0  0  0  0  0  0  0
   -4.5541   -2.3817    0.0000 C   0  0  0  0  0  0  0  0  0  0  0  0
   -6.0541   -2.3817    0.0000 O   0  0  0  0  0  0  0  0  0  0  0  0
   -3.6724   -1.1682    0.0000 C   0  0  0  0  0  0  0  0  0  0  0  0
   -4.1359    0.2584    0.0000 O   0  0  0  0  0  0  0  0  0  0  0  0
  1  2  1  0
  2  3  2  0
  2  4  1  0
  4  5  1  0
  5  6  2  0
  6  7  1  0
  7  8  1  0
  9  7  1  6
  9 10  1  0
 10 11  1  0
 11 12  1  6
 12 13  1  0
 11 14  1  0
 14 15  1  1
 14 16  1  0
 16 17  1  1
  8  4  2  0
 16  9  1  0
M  END
$$$$
312971
     RDKit          2D

 33 37  0  0  0  0  0  0  0  0999 V2000
   -1.2990   -5.8573    0.0000 N   0  0  0  0  0  0  0  0  0  0  0  0
   -0.0000   -5.1073    0.0000 C   0  0  0  0  0  0  0  0  0  0  0  0
    1.2990   -5.8573    0.0000 O   0  0  0  0  0  0  0  0  0  0  0  0
   -0.0000   -3.6073    0.0000 C   0  0  0  0  0  0  0  0  0  0  0  0
    1.2135   -2.7256    0.0000 O   0  0  0  0  0  0  0  0  0  0  0  0
    0.7500   -1.2990    0.0000 C   0  0  0  0  0  0  0  0  0  0  0  0
    1.5000    0.0000    0.0000 C   0  0  0  0  0  0  0  0  0  0  0  0
    0.7500    1.2990    0.0000 C   0  0  0  0  0  0  0  0  0  0  0  0
   -0.7500    1.2990    0.0000 C   0  0  0  0  0  0  0  0  0  0  0  0
   -1.5000    0.0000    0.0000 C   0  0  0  0  0  0  0  0  0  0  0  0
   -0.7500   -1.2990    0.0000 C   0  0  0  0  0  0  0  0  0  0  0  0
   -1.2135   -2.7256    0.0000 C   0  0  0  0  0  0  0  0  0  0  0  0
   -1.5000    2.5981    0.0000 N   0  0  0  0  0  0  0  0  0  0  0  0
   -0.7500    3.8971    0.0000 C   0  0  0  0  0  0  0  0  0  0  0  0
   -1.5000    5.1962    0.0000 C   0  0  0  0  0  0  0  0  0  0  0  0
   -3.0000    5.1962    0.0000 N   0  0  0  0  0  0  0  0  0  0  0  0
   -3.7500    6.4952    0.0000 C   0  0  0  0  0  0  0  0  0  0  0  0
   -3.0000    7.7942    0.0000 C   0  0  0  0  0  0  0  0  0  0  0  0
   -3.7500    9.0933    0.0000 C   0  0  0  0  0  0  0  0  0  0  0  0
   -3.0000   10.3923    0.0000 C   0  0  0  0  0  0  0  0  0  0  0  0
   -3.7500   11.6913    0.0000 C   0  0  0  0  0  0  0  0  0  0  0  0
   -5.2418   11.8481    0.0000 C   0  0  0  0  0  0  0  0  0  0  0  0
   -5.5537   13.3154    0.0000 N   0  0  0  0  0  0  0  0  0  0  0  0
   -4.2546   14.0654    0.0000 C   0  0  0  0  0  0  0  0  0  0  0  0
   -3.9427   15.5326    0.0000 C   0  0  0  0  0  0  0  0  0  0  0  0
   -2.5162   15.9961    0.0000 C   0  0  0  0  0  0  0  0  0  0  0  0
   -1.4014   14.9924    0.0000 C   0  0  0  0  0  0  0  0  0  0  0  0
   -1.7133   13.5252    0.0000 C   0  0  0  0  0  0  0  0  0  0  0  0
   -3.1399   13.0617    0.0000 C   0  0  0  0  0  0  0  0  0  0  0  0
    0.0251   15.4559    0.0000 C   0  0  0  0  0  0  0  0  0  0  0  0
    1.4517   15.9195    0.0000 N   0  0  0  0  0  0  0  0  0  0  0  0
   -3.7500    3.8971    0.0000 C   0  0  0  0  0  0  0  0  0  0  0  0
   -3.0000    2.5981    0.0000 C   0  0  0  0  0  0  0  0  0  0  0  0
  1  2  1  0
  2  3  2  0
  2  4  1  0
  4  5  1  0
  5  6  1  0
  6  7  2  0
  7  8  1  0
  8  9  2  0
  9 10  1  0
 10 11  2  0
 11 12  1  0
  9 13  1  0
 13 14  1  0
 14 15  1  0
 15 16  1  0
 16 17  1  0
 17 18  1  0
 18 19  1  0
 19 20  1  0
 20 21  1  0
 21 22  2  0
 22 23  1  0
 23 24  1  0
 24 25  2  0
 25 26  1  0
 26 27  2  0
 27 28  1  0
 28 29  2  0
 27 30  1  0
 30 31  3  0
 16 32  1  0
 32 33  1  0
 12  4  2  0
 11  6  1  0
 33 13  1  0
 29 21  1  0
 29 24  1  0
M  END
$$$$
317124
     RDKit          2D

 19 20  0  0  0  0  0  0  0  0999 V2000
    6.0000   -5.1962    0.0000 N   0  0  0  0  0  0  0  0  0  0  0  0
    5.2500   -3.8971    0.0000 C   0  0  0  0  0  0  0  0  0  0  0  0
    6.0000   -2.5981    0.0000 O   0  0  0  0  0  0  0  0  0  0  0  0
    3.7500   -3.8971    0.0000 C   0  0  0  0  0  0  0  0  0  0  0  0
    3.0000   -2.5981    0.0000 S   0  0  0  0  0  3  0  0  0  0  0  0
    3.7500   -1.2990    0.0000 O   0  0  0  0  0  1  0  0  0  0  0  0
    1.5000   -2.5981    0.0000 C   0  0  0  0  0  0  0  0  0  0  0  0
    0.7500   -1.2990    0.0000 C   0  0  0  0  0  0  0  0  0  0  0  0
    1.5000    0.0000    0.0000 C   0  0  0  0  0  0  0  0  0  0  0  0
    0.7500    1.2990    0.0000 C   0  0  0  0  0  0  0  0  0  0  0  0
   -0.7500    1.2990    0.0000 C   0  0  0  0  0  0  0  0  0  0  0  0
   -1.5000    0.0000    0.0000 C   0  0  0  0  0  0  0  0  0  0  0  0
   -0.7500   -1.2990    0.0000 C   0  0  0  0  0  0  0  0  0  0  0  0
    0.7500   -3.8971    0.0000 C   0  0  0  0  0  0  0  0  0  0  0  0
   -0.7500   -3.8971    0.0000 C   0  0  0  0  0  0  0  0  0  0  0  0
   -1.5000   -5.1962    0.0000 C   0  0  0  0  0  0  0  0  0  0  0  0
   -0.7500   -6.4952    0.0000 C   0  0  0  0  0  0  0  0  0  0  0  0
    0.7500   -6.4952    0.0000 C   0  0  0  0  0  0  0  0  0  0  0  0
    1.5000   -5.1962    0.0000 C   0  0  0  0  0  0  0  0  0  0  0  0
  1  2  1  0
  2  3  2  0
  2  4  1  0
  4  5  1  0
  5  6  1  0
  5  7  1  0
  7  8  1  0
  8  9  2  0
  9 10  1  0
 10 11  2  0
 11 12  1  0
 12 13  2  0
  7 14  1  0
 14 15  2  0
 15 16  1  0
 16 17  2  0
 17 18  1  0
 18 19  2  0
 13  8  1  0
 19 14  1  0
M  CHG  2   5   1   6  -1
M  END
$$$$
675143
     RDKit          2D

 19 20  0  0  0  0  0  0  0  0999 V2000
    6.0000   -5.1962    0.0000 N   0  0  0  0  0  0  0  0  0  0  0  0
    5.2500   -3.8971    0.0000 C   0  0  0  0  0  0  0  0  0  0  0  0
    6.0000   -2.5981    0.0000 O   0  0  0  0  0  0  0  0  0  0  0  0
    3.7500   -3.8971    0.0000 C   0  0  0  0  0  0  0  0  0  0  0  0
    3.0000   -2.5981    0.0000 S   0  0  0  0  0  3  0  0  0  0  0  0
    3.7500   -1.2990    0.0000 O   0  0  0  0  0  1  0  0  0  0  0  0
    1.5000   -2.5981    0.0000 C   0  0  0  0  0  0  0  0  0  0  0  0
    0.7500   -1.2990    0.0000 C   0  0  0  0  0  0  0  0  0  0  0  0
    1.5000    0.0000    0.0000 C   0  0  0  0  0  0  0  0  0  0  0  0
    0.7500    1.2990    0.0000 C   0  0  0  0  0  0  0  0  0  0  0  0
   -0.7500    1.2990    0.0000 C   0  0  0  0  0  0  0  0  0  0  0  0
   -1.5000    0.0000    0.0000 C   0  0  0  0  0  0  0  0  0  0  0  0
   -0.7500   -1.2990    0.0000 C   0  0  0  0  0  0  0  0  0  0  0  0
    0.7500   -3.8971    0.0000 C   0  0  0  0  0  0  0  0  0  0  0  0
   -0.7500   -3.8971    0.0000 C   0  0  0  0  0  0  0  0  0  0  0  0
   -1.5000   -5.1962    0.0000 C   0  0  0  0  0  0  0  0  0  0  0  0
   -0.7500   -6.4952    0.0000 C   0  0  0  0  0  0  0  0  0  0  0  0
    0.7500   -6.4952    0.0000 C   0  0  0  0  0  0  0  0  0  0  0  0
    1.5000   -5.1962    0.0000 C   0  0  0  0  0  0  0  0  0  0  0  0
  1  2  1  0
  2  3  2  0
  2  4  1  0
  4  5  1  0
  5  6  1  0
  5  7  1  0
  7  8  1  0
  8  9  2  0
  9 10  1  0
 10 11  2  0
 11 12  1  0
 12 13  2  0
  7 14  1  0
 14 15  2  0
 15 16  1  0
 16 17  2  0
 17 18  1  0
 18 19  2  0
 13  8  1  0
 19 14  1  0
M  CHG  2   5   1   6  -1
M  END
$$$$
102073
     RDKit          2D

  4  3  0  0  0  0  0  0  0  0999 V2000
    1.2990    0.7500    0.0000 N   0  0  0  0  0  0  0  0  0  0  0  0
    0.0000    0.0000    0.0000 C   0  0  0  0  0  0  0  0  0  0  0  0
   -0.0000   -1.5000    0.0000 O   0  0  0  0  0  0  0  0  0  0  0  0
   -1.2990    0.7500    0.0000 N   0  0  0  0  0  0  0  0  0  0  0  0
  1  2  1  0
  2  3  2  0
  2  4  1  0
M  END
$$$$
15086
     RDKit          2D

 18 20  0  0  0  0  0  0  0  0999 V2000
    4.1679   -3.2376    0.0000 N   0  0  0  0  0  0  0  0  0  0  0  0
    3.1476   -2.1380    0.0000 C   0  0  0  0  0  0  0  0  0  0  0  0
    3.5898   -0.7046    0.0000 O   0  0  0  0  0  0  0  0  0  0  0  0
    1.6852   -2.4718    0.0000 N   0  0  0  0  0  0  0  0  0  0  0  0
    0.7500   -1.2990    0.0000 C   0  0  0  0  0  0  0  0  0  0  0  0
    1.5000    0.0000    0.0000 C   0  0  0  0  0  0  0  0  0  0  0  0
    0.7500    1.2990    0.0000 C   0  0  0  0  0  0  0  0  0  0  0  0
   -0.7500    1.2990    0.0000 C   0  0  0  0  0  0  0  0  0  0  0  0
   -1.5000    0.0000    0.0000 C   0  0  0  0  0  0  0  0  0  0  0  0
   -0.7500   -1.2990    0.0000 C   0  0  0  0  0  0  0  0  0  0  0  0
   -1.6852   -2.4718    0.0000 C   0  0  0  0  0  0  0  0  0  0  0  0
   -1.3515   -3.9342    0.0000 C   0  0  0  0  0  0  0  0  0  0  0  0
   -0.0000   -4.5850    0.0000 C   0  0  0  0  0  0  0  0  0  0  0  0
   -0.1121   -6.0808    0.0000 C   0  0  0  0  0  0  0  0  0  0  0  0
    1.1273   -6.9258    0.0000 C   0  0  0  0  0  0  0  0  0  0  0  0
    2.4787   -6.2750    0.0000 C   0  0  0  0  0  0  0  0  0  0  0  0
    2.5908   -4.7792    0.0000 C   0  0  0  0  0  0  0  0  0  0  0  0
    1.3515   -3.9342    0.0000 C   0  0  0  0  0  0  0  0  0  0  0  0
  1  2  1  0
  2  3  2  0
  2  4  1  0
  4  5  1  0
  5  6  2  0
  6  7  1  0
  7  8  2  0
  8  9  1  0
  9 10  2  0
 10 11  1  0
 11 12  2  0
 12 13  1  0
 13 14  2  0
 14 15  1  0
 15 16  2  0
 16 17  1  0
 17 18  2  0
 18  4  1  0
 10  5  1  0
 18 13  1  0
M  END
$$$$
139014
     RDKit          2D

 19 21  0  0  0  0  0  0  0  0999 V2000
    4.1679   -3.2376    0.0000 N   0  0  0  0  0  0  0  0  0  0  0  0
    3.1476   -2.1380    0.0000 C   0  0  0  0  0  0  0  0  0  0  0  0
    3.5898   -0.7046    0.0000 O   0  0  0  0  0  0  0  0  0  0  0  0
    1.6852   -2.4718    0.0000 N   0  0  0  0  0  0  0  0  0  0  0  0
    0.7500   -1.2990    0.0000 C   0  0  0  0  0  0  0  0  0  0  0  0
    1.5000    0.0000    0.0000 C   0  0  0  0  0  0  0  0  0  0  0  0
    0.7500    1.2990    0.0000 C   0  0  0  0  0  0  0  0  0  0  0  0
   -0.7500    1.2990    0.0000 C   0  0  0  0  0  0  0  0  0  0  0  0
   -1.5000    0.0000    0.0000 C   0  0  0  0  0  0  0  0  0  0  0  0
   -0.7500   -1.2990    0.0000 C   0  0  0  0  0  0  0  0  0  0  0  0
   -1.6852   -2.4718    0.0000 C   0  0  0  0  0  0  0  0  0  0  0  0
   -1.3515   -3.9342    0.0000 C   0  0  0  0  0  0  0  0  0  0  0  0
   -2.5242   -4.8694    0.0000 O   0  0  0  0  0  0  0  0  0  0  0  0
   -0.0000   -4.5850    0.0000 C   0  0  0  0  0  0  0  0  0  0  0  0
   -0.1121   -6.0808    0.0000 C   0  0  0  0  0  0  0  0  0  0  0  0
    1.1273   -6.9258    0.0000 C   0  0  0  0  0  0  0  0  0  0  0  0
    2.4787   -6.2750    0.0000 C   0  0  0  0  0  0  0  0  0  0  0  0
    2.5908   -4.7792    0.0000 C   0  0  0  0  0  0  0  0  0  0  0  0
    1.3515   -3.9342    0.0000 C   0  0  0  0  0  0  0  0  0  0  0  0
  1  2  1  0
  2  3  2  0
  2  4  1  0
  4  5  1  0
  5  6  2  0
  6  7  1  0
  7  8  2  0
  8  9  1  0
  9 10  2  0
 10 11  1  0
 11 12  1  0
 12 13  2  0
 12 14  1  0
 14 15  2  0
 15 16  1  0
 16 17  2  0
 17 18  1  0
 18 19  2  0
 19  4  1  0
 10  5  1  0
 19 14  1  0
M  END
$$$$
83000
     RDKit          2D

 13 13  0  0  0  0  0  0  0  0999 V2000
    7.5000   -2.5981    0.0000 N   0  0  0  0  0  0  0  0  0  0  0  0
    6.0000   -2.5981    0.0000 C   0  0  0  0  0  0  0  0  0  0  0  0
    5.2500   -3.8971    0.0000 O   0  0  0  0  0  0  0  0  0  0  0  0
    5.2500   -1.2990    0.0000 N   0  0  0  0  0  0  0  0  0  0  0  0
    3.7500   -1.2990    0.0000 C   0  0  0  0  0  0  0  0  0  0  0  0
    3.0000   -2.5981    0.0000 O   0  0  0  0  0  0  0  0  0  0  0  0
    3.0000    0.0000    0.0000 C   0  0  0  0  0  0  0  0  0  0  0  0
    1.5000    0.0000    0.0000 C   0  0  0  0  0  0  0  0  0  0  0  0
    0.7500   -1.2990    0.0000 C   0  0  0  0  0  0  0  0  0  0  0  0
   -0.7500   -1.2990    0.0000 C   0  0  0  0  0  0  0  0  0  0  0  0
   -1.5000    0.0000    0.0000 C   0  0  0  0  0  0  0  0  0  0  0  0
   -0.7500    1.2990    0.0000 C   0  0  0  0  0  0  0  0  0  0  0  0
    0.7500    1.2990    0.0000 C   0  0  0  0  0  0  0  0  0  0  0  0
  1  2  1  0
  2  3  2  0
  2  4  1  0
  4  5  1  0
  5  6  2  0
  5  7  1  0
  7  8  1  0
  8  9  2  0
  9 10  1  0
 10 11  2  0
 11 12  1  0
 12 13  2  0
 13  8  1  0
M  END
$$$$
4730
     RDKit          2D

  5  4  0  0  0  0  0  0  0  0999 V2000
    1.2990    0.7500    0.0000 N   0  0  0  0  0  0  0  0  0  0  0  0
    0.0000    0.0000    0.0000 C   0  0  0  0  0  0  0  0  0  0  0  0
   -0.0000   -1.5000    0.0000 O   0  0  0  0  0  0  0  0  0  0  0  0
   -1.2990    0.7500    0.0000 N   0  0  0  0  0  0  0  0  0  0  0  0
   -2.5981    0.0000    0.0000 O   0  0  0  0  0  0  0  0  0  0  0  0
  1  2  1  0
  2  3  2  0
  2  4  1  0
  4  5  1  0
M  END
$$$$
675731
     RDKit          2D

 13 12  0  0  0  0  0  0  0  0999 V2000
   -2.5981    4.5000    0.0000 N   0  0  0  0  0  0  0  0  0  0  0  0
   -2.5981    3.0000    0.0000 C   0  0  0  0  0  0  0  0  0  0  0  0
   -3.8971    2.2500    0.0000 O   0  0  0  0  0  0  0  0  0  0  0  0
   -1.2990    2.2500    0.0000 N   0  0  0  0  0  0  0  0  0  0  0  0
   -1.2990    0.7500    0.0000 C   0  0  0  0  0  0  0  0  0  0  0  0
    0.0000    0.0000    0.0000 C   0  0  0  0  0  0  0  0  0  0  0  0
    1.2990    0.7500    0.0000 C   0  0  0  0  0  0  0  0  0  0  0  0
    2.5981   -0.0000    0.0000 C   0  0  0  0  0  0  0  0  0  0  0  0
    2.5981   -1.5000    0.0000 O   0  0  0  0  0  0  0  0  0  0  0  0
    3.8971    0.7500    0.0000 O   0  0  0  0  0  0  0  0  0  0  0  0
   -2.5981    0.0000    0.0000 C   0  0  0  0  0  0  0  0  0  0  0  0
   -2.5981   -1.5000    0.0000 O   0  0  0  0  0  0  0  0  0  0  0  0
   -3.8971    0.7500    0.0000 O   0  0  0  0  0  0  0  0  0  0  0  0
  1  2  1  0
  2  3  2  0
  2  4  1  0
  4  5  1  0
  5  6  1  1
  6  7  1  0
  7  8  1  0
  8  9  2  0
  8 10  1  0
  5 11  1  0
 11 12  2  0
 11 13  1  0
M  END
$$$$
453538
     RDKit          2D

 12 12  0  0  0  0  0  0  0  0999 V2000
    3.5377   -3.4056    0.0000 N   0  0  0  0  0  0  0  0  0  0  0  0
    2.3886   -2.4414    0.0000 C   0  0  0  0  0  0  0  0  0  0  0  0
    0.9791   -2.9544    0.0000 O   0  0  0  0  0  0  0  0  0  0  0  0
    2.6491   -0.9642    0.0000 O   0  0  0  0  0  0  0  0  0  0  0  0
    1.5000    0.0000    0.0000 C   0  0  0  0  0  0  0  0  0  0  0  0
    0.7500   -1.2990    0.0000 C   0  0  0  0  0  0  0  0  0  0  0  0
   -0.7500   -1.2990    0.0000 C   0  0  0  0  0  0  0  0  0  0  0  0
   -1.5000    0.0000    0.0000 C   0  0  0  0  0  0  0  0  0  0  0  0
   -0.7500    1.2990    0.0000 C   0  0  0  0  0  0  0  0  0  0  0  0
    0.7500    1.2990    0.0000 C   0  0  0  0  0  0  0  0  0  0  0  0
    2.6491    0.9642    0.0000 C   0  0  0  0  0  0  0  0  0  0  0  0
    3.7981    1.9284    0.0000 C   0  0  0  0  0  0  0  0  0  0  0  0
  1  2  1  0
  2  3  2  0
  2  4  1  0
  4  5  1  0
  5  6  1  0
  6  7  1  0
  7  8  1  0
  8  9  1  0
  9 10  1  0
  5 11  1  0
 11 12  3  0
 10  5  1  0
M  END
$$$$
150451
     RDKit          2D

 17 17  0  0  0  0  0  0  0  0999 V2000
    7.5000   -2.5981    0.0000 N   0  0  0  0  0  0  0  0  0  0  0  0
    6.0000   -2.5981    0.0000 C   0  0  0  0  0  0  0  0  0  0  0  0
    5.2500   -3.8971    0.0000 O   0  0  0  0  0  0  0  0  0  0  0  0
    5.2500   -1.2990    0.0000 O   0  0  0  0  0  0  0  0  0  0  0  0
    3.7500   -1.2990    0.0000 C   0  0  0  0  0  0  0  0  0  0  0  0
    3.0000    0.0000    0.0000 C   0  0  0  0  0  0  0  0  0  0  0  0
    3.7500    1.2990    0.0000 C   0  0  0  0  0  0  0  0  0  0  0  0
    5.2500    1.2990    0.0000 O   0  0  0  0  0  0  0  0  0  0  0  0
    6.0000    2.5981    0.0000 C   0  0  0  0  0  0  0  0  0  0  0  0
    5.2500    3.8971    0.0000 O   0  0  0  0  0  0  0  0  0  0  0  0
    7.5000    2.5981    0.0000 N   0  0  0  0  0  0  0  0  0  0  0  0
    1.5000    0.0000    0.0000 C   0  0  0  0  0  0  0  0  0  0  0  0
    0.7500   -1.2990    0.0000 C   0  0  0  0  0  0  0  0  0  0  0  0
   -0.7500   -1.2990    0.0000 C   0  0  0  0  0  0  0  0  0  0  0  0
   -1.5000    0.0000    0.0000 C   0  0  0  0  0  0  0  0  0  0  0  0
   -0.7500    1.2990    0.0000 C   0  0  0  0  0  0  0  0  0  0  0  0
    0.7500    1.2990    0.0000 C   0  0  0  0  0  0  0  0  0  0  0  0
  1  2  1  0
  2  3  2  0
  2  4  1  0
  4  5  1  0
  5  6  1  0
  6  7  1  0
  7  8  1  0
  8  9  1  0
  9 10  2  0
  9 11  1  0
  6 12  1  0
 12 13  2  0
 13 14  1  0
 14 15  2  0
 15 16  1  0
 16 17  2  0
 17 12  1  0
M  END
$$$$
604618
     RDKit          2D

 16 16  0  0  0  0  0  0  0  0999 V2000
    9.7500   -3.8971    0.0000 N   0  0  0  0  0  0  0  0  0  0  0  0
    8.2500   -3.8971    0.0000 C   0  0  0  0  0  0  0  0  0  0  0  0
    7.5000   -5.1962    0.0000 O   0  0  0  0  0  0  0  0  0  0  0  0
    7.5000   -2.5981    0.0000 O   0  0  0  0  0  0  0  0  0  0  0  0
    6.0000   -2.5981    0.0000 C   0  0  0  0  0  0  0  0  0  0  0  0
    5.2500   -1.2990    0.0000 C   0  0  0  0  0  0  0  0  0  0  0  0
    6.0000    0.0000    0.0000 O   0  0  0  0  0  0  0  0  0  0  0  0
    3.7500   -1.2990    0.0000 C   0  0  0  0  0  0  0  0  0  0  0  0
    3.0000    0.0000    0.0000 O   0  0  0  0  0  0  0  0  0  0  0  0
    1.5000    0.0000    0.0000 C   0  0  0  0  0  0  0  0  0  0  0  0
    0.7500   -1.2990    0.0000 C   0  0  0  0  0  0  0  0  0  0  0  0
   -0.7500   -1.2990    0.0000 C   0  0  0  0  0  0  0  0  0  0  0  0
   -1.5000    0.0000    0.0000 C   0  0  0  0  0  0  0  0  0  0  0  0
   -3.0000    0.0000    0.0000 Cl  0  0  0  0  0  0  0  0  0  0  0  0
   -0.7500    1.2990    0.0000 C   0  0  0  0  0  0  0  0  0  0  0  0
    0.7500    1.2990    0.0000 C   0  0  0  0  0  0  0  0  0  0  0  0
  1  2  1  0
  2  3  2  0
  2  4  1  0
  4  5  1  0
  5  6  1  0
  6  7  1  0
  6  8  1  0
  8  9  1  0
  9 10  1  0
 10 11  2  0
 11 12  1  0
 12 13  2  0
 13 14  1  0
 13 15  1  0
 15 16  2  0
 16 10  1  0
M  END
$$$$
141484
     RDKit          2D

  9  8  0  0  0  0  0  0  0  0999 V2000
    2.5981   -1.5000    0.0000 N   0  0  0  0  0  0  0  0  0  0  0  0
    2.5981   -0.0000    0.0000 C   0  0  0  0  0  0  0  0  0  0  0  0
    3.8971    0.7500    0.0000 C   0  0  0  0  0  0  0  0  0  0  0  0
    5.1962   -0.0000    0.0000 C   0  0  0  0  0  0  0  0  0  0  0  0
    6.4952    0.7500    0.0000 C   0  0  0  0  0  0  0  0  0  0  0  0
    6.4952    2.2500    0.0000 O   0  0  0  0  0  0  0  0  0  0  0  0
    7.7942   -0.0000    0.0000 O   0  0  0  0  0  0  0  0  0  0  0  0
    1.2990    0.7500    0.0000 C   0  0  0  0  0  0  0  0  0  0  0  0
    0.0000    0.0000    0.0000 C   0  0  0  0  0  0  0  0  0  0  0  0
  1  2  1  0
  2  3  1  0
  3  4  1  0
  4  5  1  0
  5  6  2  0
  5  7  1  0
  2  8  1  0
  8  9  2  0
M  END
$$$$
675075
     RDKit          2D

 27 28  0  0  0  0  0  0  0  0999 V2000
    0.5490    5.5317    0.0000 N   0  0  0  0  0  0  0  0  0  0  0  0
    1.2990    4.2326    0.0000 C   0  0  0  0  0  0  0  0  0  0  0  0
    0.0000    3.4826    0.0000 C   0  0  0  0  0  0  0  0  0  0  0  0
   -1.2990    4.2326    0.0000 O   0  0  0  0  0  0  0  0  0  0  0  0
    2.5981    4.9826    0.0000 C   0  0  0  0  0  0  0  0  0  0  0  0
    2.5981    6.4826    0.0000 O   0  0  0  0  0  0  0  0  0  0  0  0
    2.0490    2.9336    0.0000 C   0  0  0  0  0  0  0  0  0  0  0  0
    3.5490    2.9336    0.0000 O   0  0  0  0  0  0  0  0  0  0  0  0
    3.5260   -1.2990    0.0000 O   0  0  0  0  0  0  0  0  0  0  0  0
    2.7760    0.0000    0.0000 C   0  0  0  0  0  0  0  0  0  0  0  0
    3.5260    1.2990    0.0000 O   0  0  0  0  0  0  0  0  0  0  0  0
    1.2760    0.0000    0.0000 C   0  0  0  0  0  0  0  0  0  0  0  0
    0.3943    1.2135    0.0000 C   0  0  0  0  0  0  0  0  0  0  0  0
   -1.0323    0.7500    0.0000 C   0  0  0  0  0  0  0  0  0  0  0  0
   -1.0323   -0.7500    0.0000 N   0  0  0  0  0  0  0  0  0  0  0  0
    0.3943   -1.2135    0.0000 C   0  0  0  0  0  0  0  0  0  0  0  0
    0.3943   -2.7135    0.0000 C   0  0  0  0  0  0  0  0  0  0  0  0
   -1.0323   -3.1771    0.0000 C   0  0  0  0  0  0  0  0  0  0  0  0
   -1.9140   -1.9635    0.0000 C   0  0  0  0  0  0  0  0  0  0  0  0
   -3.4140   -1.9635    0.0000 C   0  0  0  0  0  0  0  0  0  0  0  0
   -4.1640   -3.2626    0.0000 O   0  0  0  0  0  0  0  0  0  0  0  0
   -4.1640   -0.6645    0.0000 C   0  0  0  0  0  0  0  0  0  0  0  0
   -3.4140    0.6346    0.0000 C   0  0  0  0  0  0  0  0  0  0  0  0
   -4.1640    1.9336    0.0000 C   0  0  0  0  0  0  0  0  0  0  0  0
   -5.6640    1.9336    0.0000 C   0  0  0  0  0  0  0  0  0  0  0  0
   -6.4140    0.6346    0.0000 C   0  0  0  0  0  0  0  0  0  0  0  0
   -5.6640   -0.6645    0.0000 C   0  0  0  0  0  0  0  0  0  0  0  0
  1  2  1  0
  2  3  1  0
  3  4  1  0
  2  5  1  0
  5  6  1  0
  2  7  1  0
  7  8  1  0
  9 10  1  0
 10 11  2  0
 10 12  1  0
 12 13  1  0
 13 14  1  0
 14 15  1  0
 15 16  1  0
 16 17  2  0
 17 18  1  0
 18 19  2  0
 19 20  1  0
 20 21  2  0
 20 22  1  0
 22 23  2  0
 23 24  1  0
 24 25  2  0
 25 26  1  0
 26 27  2  0
 16 12  1  0
 19 15  1  0
 27 22  1  0
M  END
$$$$
27647
     RDKit          2D

 11 13  0  0  0  0  0  0  0  0999 V2000
    1.5000   -2.5981    0.0000 N   0  0  0  0  0  0  0  0  0  0  0  0
    0.7500   -1.2990    0.0000 C   0  0  0  0  0  0  0  0  0  0  0  0
    1.5000    0.0000    0.0000 C   0  0  0  0  0  0  0  0  0  0  0  0
    0.7500    1.2990    0.0000 C   0  0  0  0  0  0  0  0  0  0  0  0
   -0.7500    1.2990    0.0000 C   0  0  0  0  0  0  0  0  0  0  0  0
   -1.5000    0.0000    0.0000 C   0  0  0  0  0  0  0  0  0  0  0  0
    1.7010   -0.7500    0.0000 C   0  0  0  0  0  0  0  0  0  0  0  0
    3.0000   -0.0000    0.0000 C   0  0  0  0  0  0  0  0  0  0  0  0
    2.2500    1.2990    0.0000 C   0  0  0  0  0  0  0  0  0  0  0  0
    2.2500   -1.2990    0.0000 C   0  0  0  0  0  0  0  0  0  0  0  0
   -0.7500   -1.2990    0.0000 C   0  0  0  0  0  0  0  0  0  0  0  0
  1  2  1  0
  2  3  1  0
  3  4  1  0
  4  5  1  0
  5  6  1  0
  6  7  1  0
  7  8  1  0
  8  9  1  0
  8 10  1  0
  6 11  1  0
 10  2  1  0
 11  2  1  0
  9  4  1  0
M  END
$$$$
393942
     RDKit          2D

  9  9  0  0  0  0  0  0  0  0999 V2000
    3.0000    0.0000    0.0000 N   0  0  0  0  0  0  0  0  0  0  0  0
    1.5000    0.0000    0.0000 C   0  0  0  0  0  0  0  0  0  0  0  0
    0.7500   -1.2990    0.0000 C   0  0  0  0  0  0  0  0  0  0  0  0
    1.5000   -2.5981    0.0000 F   0  0  0  0  0  0  0  0  0  0  0  0
   -0.7500   -1.2990    0.0000 C   0  0  0  0  0  0  0  0  0  0  0  0
   -1.5000    0.0000    0.0000 N   0  0  0  0  0  0  0  0  0  0  0  0
   -0.7500    1.2990    0.0000 C   0  0  0  0  0  0  0  0  0  0  0  0
   -1.5000    2.5981    0.0000 O   0  0  0  0  0  0  0  0  0  0  0  0
    0.7500    1.2990    0.0000 N   0  0  0  0  0  0  0  0  0  0  0  0
  1  2  1  0
  2  3  2  0
  3  4  1  0
  3  5  1  0
  5  6  2  0
  6  7  1  0
  7  8  2  0
  7  9  1  0
  9  2  1  0
M  END
$$$$
193096
     RDKit          2D

 13 14  0  0  0  0  0  0  0  0999 V2000
    1.8478   -6.4639    0.0000 N   0  0  0  0  0  0  0  0  0  0  0  0
    2.0046   -4.9721    0.0000 C   0  0  0  0  0  0  0  0  0  0  0  0
    3.3037   -4.2221    0.0000 N   0  0  0  0  0  0  0  0  0  0  0  0
    2.9918   -2.7549    0.0000 C   0  0  0  0  0  0  0  0  0  0  0  0
    3.9955   -1.6402    0.0000 O   0  0  0  0  0  0  0  0  0  0  0  0
    1.5000   -2.5981    0.0000 C   0  0  0  0  0  0  0  0  0  0  0  0
    0.8899   -3.9684    0.0000 O   0  0  0  0  0  0  0  0  0  0  0  0
    0.7500   -1.2990    0.0000 C   0  0  0  0  0  0  0  0  0  0  0  0
    1.5000    0.0000    0.0000 C   0  0  0  0  0  0  0  0  0  0  0  0
    0.7500    1.2990    0.0000 C   0  0  0  0  0  0  0  0  0  0  0  0
   -0.7500    1.2990    0.0000 C   0  0  0  0  0  0  0  0  0  0  0  0
   -1.5000    0.0000    0.0000 C   0  0  0  0  0  0  0  0  0  0  0  0
   -0.7500   -1.2990    0.0000 C   0  0  0  0  0  0  0  0  0  0  0  0
  1  2  1  0
  2  3  2  0
  3  4  1  0
  4  5  2  0
  4  6  1  0
  6  7  1  0
  6  8  1  0
  8  9  2  0
  9 10  1  0
 10 11  2  0
 11 12  1  0
 12 13  2  0
  7  2  1  0
 13  8  1  0
M  END
$$$$
510462
     RDKit          2D

 34 36  0  0  0  0  0  0  0  0999 V2000
    3.0000    0.0000    0.0000 N   0  0  0  0  0  0  0  0  0  0  0  0
    1.5000    0.0000    0.0000 C   0  0  0  0  0  0  0  0  0  0  0  0
    0.7500   -1.2990    0.0000 N   0  0  0  0  0  0  0  0  0  0  0  0
   -0.7500   -1.2990    0.0000 C   0  0  0  0  0  0  0  0  0  0  0  0
   -1.5000   -2.5981    0.0000 O   0  0  0  0  0  0  0  0  0  0  0  0
   -1.5000    0.0000    0.0000 C   0  0  0  0  0  0  0  0  0  0  0  0
   -0.7500    1.2990    0.0000 C   0  0  0  0  0  0  0  0  0  0  0  0
   -1.5000    2.5981    0.0000 N   0  0  0  0  0  0  0  0  0  0  0  0
   -3.0000    2.5981    0.0000 C   0  0  0  0  0  0  0  0  0  0  0  0
   -3.7500    1.2990    0.0000 C   0  0  0  0  0  0  0  0  0  0  0  0
   -5.2500    1.2990    0.0000 C   0  0  0  0  0  0  0  0  0  0  0  0
   -6.0000    2.5981    0.0000 N   0  0  0  0  0  0  0  0  0  0  0  0
   -7.5000    2.5981    0.0000 C   0  0  0  0  0  0  0  0  0  0  0  0
   -8.2500    3.8971    0.0000 C   0  0  0  0  0  0  0  0  0  0  0  0
   -9.7500    3.8971    0.0000 C   0  0  0  0  0  0  0  0  0  0  0  0
  -10.5000    2.5981    0.0000 C   0  0  0  0  0  0  0  0  0  0  0  0
   -9.7500    1.2990    0.0000 C   0  0  0  0  0  0  0  0  0  0  0  0
   -8.2500    1.2990    0.0000 C   0  0  0  0  0  0  0  0  0  0  0  0
  -12.0000    2.5981    0.0000 C   0  0  0  0  0  0  0  0  0  0  0  0
  -12.7500    1.2990    0.0000 O   0  0  0  0  0  0  0  0  0  0  0  0
  -12.7500    3.8971    0.0000 N   0  0  0  0  0  0  0  0  0  0  0  0
  -14.2500    3.8971    0.0000 C   0  0  0  0  0  0  0  0  0  0  0  0
  -15.0000    5.1962    0.0000 C   0  0  0  0  0  0  0  0  0  0  0  0
  -16.5000    5.1962    0.0000 C   0  0  0  0  0  0  0  0  0  0  0  0
  -17.2500    6.4952    0.0000 C   0  0  0  0  0  0  0  0  0  0  0  0
  -16.5000    7.7942    0.0000 O   0  0  0  0  0  0  0  0  0  0  0  0
  -18.7500    6.4952    0.0000 O   0  0  0  0  0  0  0  0  0  0  0  0
  -15.0000    2.5981    0.0000 C   0  0  0  0  0  0  0  0  0  0  0  0
  -14.2500    1.2990    0.0000 O   0  0  0  0  0  0  0  0  0  0  0  0
  -16.5000    2.5981    0.0000 O   0  0  0  0  0  0  0  0  0  0  0  0
   -3.0000    0.0000    0.0000 N   0  0  0  0  0  0  0  0  0  0  0  0
   -3.7500   -1.2990    0.0000 C   0  0  0  0  0  0  0  0  0  0  0  0
   -5.2500   -1.2990    0.0000 O   0  0  0  0  0  0  0  0  0  0  0  0
    0.7500    1.2990    0.0000 N   0  0  0  0  0  0  0  0  0  0  0  0
  1  2  1  0
  2  3  2  0
  3  4  1  0
  4  5  2  0
  4  6  1  0
  6  7  2  0
  7  8  1  0
  8  9  1  0
  9 10  1  0
 10 11  1  0
 11 12  1  0
 12 13  1  0
 13 14  2  0
 14 15  1  0
 15 16  2  0
 16 17  1  0
 17 18  2  0
 16 19  1  0
 19 20  2  0
 19 21  1  0
 21 22  1  0
 22 23  1  6
 23 24  1  0
 24 25  1  0
 25 26  2  0
 25 27  1  0
 22 28  1  0
 28 29  2  0
 28 30  1  0
 10 31  1  0
 31 32  1  0
 32 33  2  0
  7 34  1  0
 34  2  1  0
 31  6  1  0
 18 13  1  0
M  END
$$$$
33986
     RDKit          2D

 15 16  0  0  0  0  0  0  0  0999 V2000
    3.0000    0.0000    0.0000 N   0  0  0  0  0  0  0  0  0  0  0  0
    1.5000    0.0000    0.0000 C   0  0  0  0  0  0  0  0  0  0  0  0
    0.7500   -1.2990    0.0000 N   0  0  0  0  0  0  0  0  0  0  0  0
   -0.7500   -1.2990    0.0000 C   0  0  0  0  0  0  0  0  0  0  0  0
   -1.5000   -2.5981    0.0000 O   0  0  0  0  0  0  0  0  0  0  0  0
   -1.5000    0.0000    0.0000 N   0  0  0  0  0  0  0  0  0  0  0  0
   -0.7500    1.2990    0.0000 C   0  0  0  0  0  0  0  0  0  0  0  0
    0.7500    1.2990    0.0000 C   0  0  0  0  0  0  0  0  0  0  0  0
   -3.0000    0.0000    0.0000 C   0  0  0  0  0  0  0  0  0  0  0  0
   -3.8817   -1.2135    0.0000 C   0  0  0  0  0  0  0  0  0  0  0  0
   -5.3083   -0.7500    0.0000 S   0  0  0  0  0  0  0  0  0  0  0  0
   -5.3083    0.7500    0.0000 C   0  0  0  0  0  0  0  0  0  0  0  0
   -6.5218    1.6317    0.0000 C   0  0  0  0  0  0  0  0  0  0  0  0
   -6.3650    3.1235    0.0000 O   0  0  0  0  0  0  0  0  0  0  0  0
   -3.8817    1.2135    0.0000 O   0  0  0  0  0  0  0  0  0  0  0  0
  1  2  1  0
  2  3  2  0
  3  4  1  0
  4  5  2  0
  4  6  1  0
  6  7  1  0
  7  8  2  0
  9  6  1  6
  9 10  1  0
 10 11  1  0
 11 12  1  0
 12 13  1  6
 13 14  1  0
 12 15  1  0
  8  2  1  0
 15  9  1  0
M  END
$$$$
65494
     RDKit          2D

 15 16  0  0  0  0  0  0  0  0999 V2000
    3.0000    0.0000    0.0000 N   0  0  0  0  0  0  0  0  0  0  0  0
    1.5000    0.0000    0.0000 C   0  0  0  0  0  0  0  0  0  0  0  0
    0.7500   -1.2990    0.0000 N   0  0  0  0  0  0  0  0  0  0  0  0
   -0.7500   -1.2990    0.0000 C   0  0  0  0  0  0  0  0  0  0  0  0
   -1.5000   -2.5981    0.0000 O   0  0  0  0  0  0  0  0  0  0  0  0
   -1.5000    0.0000    0.0000 N   0  0  0  0  0  0  0  0  0  0  0  0
   -0.7500    1.2990    0.0000 C   0  0  0  0  0  0  0  0  0  0  0  0
    0.7500    1.2990    0.0000 C   0  0  0  0  0  0  0  0  0  0  0  0
   -3.0000    0.0000    0.0000 C   0  0  0  0  0  0  0  0  0  0  0  0
   -3.8817   -1.2135    0.0000 C   0  0  0  0  0  0  0  0  0  0  0  0
   -5.3083   -0.7500    0.0000 C   0  0  0  0  0  0  0  0  0  0  0  0
   -5.3083    0.7500    0.0000 C   0  0  0  0  0  0  0  0  0  0  0  0
   -6.5218    1.6317    0.0000 C   0  0  0  0  0  0  0  0  0  0  0  0
   -6.3650    3.1235    0.0000 O   0  0  0  0  0  0  0  0  0  0  0  0
   -3.8817    1.2135    0.0000 O   0  0  0  0  0  0  0  0  0  0  0  0
  1  2  1  0
  2  3  2  0
  3  4  1  0
  4  5  2  0
  4  6  1  0
  6  7  1  0
  7  8  2  0
  9  6  1  1
  9 10  1  0
 10 11  1  0
 11 12  1  0
 12 13  1  1
 13 14  1  0
 12 15  1  0
  8  2  1  0
 15  9  1  0
M  END
$$$$
74911
     RDKit          2D

 16 17  0  0  0  0  0  0  0  0999 V2000
    3.0000    0.0000    0.0000 N   0  0  0  0  0  0  0  0  0  0  0  0
    1.5000    0.0000    0.0000 C   0  0  0  0  0  0  0  0  0  0  0  0
    0.7500   -1.2990    0.0000 N   0  0  0  0  0  0  0  0  0  0  0  0
   -0.7500   -1.2990    0.0000 C   0  0  0  0  0  0  0  0  0  0  0  0
   -1.5000   -2.5981    0.0000 O   0  0  0  0  0  0  0  0  0  0  0  0
   -1.5000    0.0000    0.0000 N   0  0  0  0  0  0  0  0  0  0  0  0
   -0.7500    1.2990    0.0000 C   0  0  0  0  0  0  0  0  0  0  0  0
    0.7500    1.2990    0.0000 C   0  0  0  0  0  0  0  0  0  0  0  0
    1.5000    2.5981    0.0000 F   0  0  0  0  0  0  0  0  0  0  0  0
   -3.0000    0.0000    0.0000 C   0  0  0  0  0  0  0  0  0  0  0  0
   -3.8817   -1.2135    0.0000 C   0  0  0  0  0  0  0  0  0  0  0  0
   -5.3083   -0.7500    0.0000 S   0  0  0  0  0  0  0  0  0  0  0  0
   -5.3083    0.7500    0.0000 C   0  0  0  0  0  0  0  0  0  0  0  0
   -6.5218    1.6317    0.0000 C   0  0  0  0  0  0  0  0  0  0  0  0
   -6.3650    3.1235    0.0000 O   0  0  0  0  0  0  0  0  0  0  0  0
   -3.8817    1.2135    0.0000 O   0  0  0  0  0  0  0  0  0  0  0  0
  1  2  1  0
  2  3  2  0
  3  4  1  0
  4  5  2  0
  4  6  1  0
  6  7  1  0
  7  8  2  0
  8  9  1  0
 10  6  1  6
 10 11  1  0
 11 12  1  0
 12 13  1  0
 13 14  1  6
 14 15  1  0
 13 16  1  0
  8  2  1  0
 16 10  1  0
M  END
$$$$
33889
     RDKit          2D

 20 22  0  0  0  0  0  0  0  0999 V2000
   -2.9499    4.2246    0.0000 N   0  0  0  0  0  0  0  0  0  0  0  0
   -1.8351    3.2209    0.0000 C   0  0  0  0  0  0  0  0  0  0  0  0
   -2.1470    1.7537    0.0000 N   0  0  0  0  0  0  0  0  0  0  0  0
   -1.0323    0.7500    0.0000 C   0  0  0  0  0  0  0  0  0  0  0  0
    0.3943    1.2135    0.0000 C   0  0  0  0  0  0  0  0  0  0  0  0
    1.2760    0.0000    0.0000 N   0  0  0  0  0  0  0  0  0  0  0  0
    0.3943   -1.2135    0.0000 C   0  0  0  0  0  0  0  0  0  0  0  0
   -1.0323   -0.7500    0.0000 N   0  0  0  0  0  0  0  0  0  0  0  0
   -2.2458   -1.6317    0.0000 C   0  0  0  0  0  0  0  0  0  0  0  0
   -2.2458   -3.1317    0.0000 C   0  0  0  0  0  0  0  0  0  0  0  0
   -3.6724   -3.5952    0.0000 C   0  0  0  0  0  0  0  0  0  0  0  0
   -4.1359   -5.0218    0.0000 O   0  0  0  0  0  0  0  0  0  0  0  0
   -4.5541   -2.3817    0.0000 C   0  0  0  0  0  0  0  0  0  0  0  0
   -6.0541   -2.3817    0.0000 C   0  0  0  0  0  0  0  0  0  0  0  0
   -6.8041   -1.0826    0.0000 O   0  0  0  0  0  0  0  0  0  0  0  0
   -3.6724   -1.1682    0.0000 C   0  0  0  0  0  0  0  0  0  0  0  0
   -4.1359    0.2584    0.0000 C   0  0  0  0  0  0  0  0  0  0  0  0
    0.7062    2.6807    0.0000 C   0  0  0  0  0  0  0  0  0  0  0  0
    2.1328    3.1443    0.0000 O   0  0  0  0  0  0  0  0  0  0  0  0
   -0.4086    3.6844    0.0000 N   0  0  0  0  0  0  0  0  0  0  0  0
  1  2  1  0
  2  3  2  0
  3  4  1  0
  4  5  2  0
  5  6  1  0
  6  7  2  0
  7  8  1  0
  9  8  1  1
  9 10  1  0
 10 11  1  0
 11 12  1  6
 11 13  1  0
 13 14  1  1
 14 15  1  0
 13 16  1  0
 16 17  2  0
  5 18  1  0
 18 19  2  0
 18 20  1  0
 20  2  1  0
  8  4  1  0
 16  9  1  0
M  END
$$$$
36864
     RDKit          2D

 11 12  0  0  0  0  0  0  0  0999 V2000
   -0.0967    5.1517    0.0000 N   0  0  0  0  0  0  0  0  0  0  0  0
   -0.4086    3.6844    0.0000 C   0  0  0  0  0  0  0  0  0  0  0  0
    0.7062    2.6807    0.0000 N   0  0  0  0  0  0  0  0  0  0  0  0
    0.3943    1.2135    0.0000 C   0  0  0  0  0  0  0  0  0  0  0  0
    1.2760    0.0000    0.0000 N   0  0  0  0  0  0  0  0  0  0  0  0
    0.3943   -1.2135    0.0000 C   0  0  0  0  0  0  0  0  0  0  0  0
   -1.0323   -0.7500    0.0000 N   0  0  0  0  0  0  0  0  0  0  0  0
   -1.0323    0.7500    0.0000 C   0  0  0  0  0  0  0  0  0  0  0  0
   -2.1470    1.7537    0.0000 C   0  0  0  0  0  0  0  0  0  0  0  0
   -3.5736    1.2902    0.0000 S   0  0  0  0  0  0  0  0  0  0  0  0
   -1.8351    3.2209    0.0000 N   0  0  0  0  0  0  0  0  0  0  0  0
  1  2  1  0
  2  3  2  0
  3  4  1  0
  4  5  1  0
  5  6  1  0
  6  7  2  0
  7  8  1  0
  8  9  1  0
  9 10  2  0
  9 11  1  0
 11  2  1  0
  8  4  2  0
M  END
$$$$
9333
     RDKit          2D

 15 17  0  0  0  0  0  0  0  0999 V2000
    3.0000   -2.5981    0.0000 N   0  0  0  0  0  0  0  0  0  0  0  0
    1.5000   -2.5981    0.0000 C   0  0  0  0  0  0  0  0  0  0  0  0
    0.7500   -1.2990    0.0000 C   0  0  0  0  0  0  0  0  0  0  0  0
    1.5000    0.0000    0.0000 C   0  0  0  0  0  0  0  0  0  0  0  0
    0.7500    1.2990    0.0000 C   0  0  0  0  0  0  0  0  0  0  0  0
   -0.7500    1.2990    0.0000 C   0  0  0  0  0  0  0  0  0  0  0  0
   -1.5000    0.0000    0.0000 C   0  0  0  0  0  0  0  0  0  0  0  0
   -0.7500   -1.2990    0.0000 C   0  0  0  0  0  0  0  0  0  0  0  0
   -1.5000   -2.5981    0.0000 N   0  0  0  0  0  0  0  0  0  0  0  0
   -0.7500   -3.8971    0.0000 C   0  0  0  0  0  0  0  0  0  0  0  0
   -1.5000   -5.1962    0.0000 C   0  0  0  0  0  0  0  0  0  0  0  0
   -0.7500   -6.4952    0.0000 C   0  0  0  0  0  0  0  0  0  0  0  0
    0.7500   -6.4952    0.0000 C   0  0  0  0  0  0  0  0  0  0  0  0
    1.5000   -5.1962    0.0000 C   0  0  0  0  0  0  0  0  0  0  0  0
    0.7500   -3.8971    0.0000 C   0  0  0  0  0  0  0  0  0  0  0  0
  1  2  1  0
  2  3  2  0
  3  4  1  0
  4  5  1  0
  5  6  1  0
  6  7  1  0
  7  8  1  0
  8  9  2  0
  9 10  1  0
 10 11  2  0
 11 12  1  0
 12 13  2  0
 13 14  1  0
 14 15  2  0
 15  2  1  0
  8  3  1  0
 15 10  1  0
M  END
$$$$
51042
     RDKit          2D

 15 16  0  0  0  0  0  0  0  0999 V2000
    3.0000    0.0000    0.0000 N   0  0  0  0  0  0  0  0  0  0  0  0
    1.5000    0.0000    0.0000 C   0  0  0  0  0  0  0  0  0  0  0  0
    0.7500   -1.2990    0.0000 C   0  0  0  0  0  0  0  0  0  0  0  0
   -0.7500   -1.2990    0.0000 C   0  0  0  0  0  0  0  0  0  0  0  0
   -1.5000    0.0000    0.0000 N   0  0  0  0  0  0  0  0  0  0  0  0
   -0.7500    1.2990    0.0000 C   0  0  0  0  0  0  0  0  0  0  0  0
   -1.5000    2.5981    0.0000 N   0  0  0  0  0  0  0  0  0  0  0  0
    0.7500    1.2990    0.0000 N   0  0  0  0  0  4  0  0  0  0  0  0
    1.5000    2.5981    0.0000 O   0  0  0  0  0  1  0  0  0  0  0  0
   -1.5000   -2.5981    0.0000 N   0  0  0  0  0  0  0  0  0  0  0  0
   -3.0000   -2.5981    0.0000 C   0  0  0  0  0  0  0  0  0  0  0  0
   -3.7500   -3.8971    0.0000 C   0  0  0  0  0  0  0  0  0  0  0  0
   -3.0000   -5.1962    0.0000 C   0  0  0  0  0  0  0  0  0  0  0  0
   -1.5000   -5.1962    0.0000 C   0  0  0  0  0  0  0  0  0  0  0  0
   -0.7500   -3.8971    0.0000 C   0  0  0  0  0  0  0  0  0  0  0  0
  1  2  1  0
  2  3  2  0
  3  4  1  0
  4  5  2  0
  5  6  1  0
  6  7  1  0
  6  8  2  0
  8  9  1  0
  4 10  1  0
 10 11  1  0
 11 12  1  0
 12 13  1  0
 13 14  1  0
 14 15  1  0
  8  2  1  0
 15 10  1  0
M  CHG  2   8   1   9  -1
M  END
$$$$
131607
     RDKit          2D

 10 11  0  0  0  0  0  0  0  0999 V2000
    0.7500   -5.3971    0.0000 N   0  0  0  0  0  0  0  0  0  0  0  0
    1.5000   -4.0981    0.0000 C   0  0  0  0  0  0  0  0  0  0  0  0
    2.7990   -3.3481    0.0000 C   0  0  0  0  0  0  0  0  0  0  0  0
    1.5000   -2.5981    0.0000 C   0  0  0  0  0  0  0  0  0  0  0  0
    0.7500   -1.2990    0.0000 C   0  0  0  0  0  0  0  0  0  0  0  0
    1.5000    0.0000    0.0000 C   0  0  0  0  0  0  0  0  0  0  0  0
    0.7500    1.2990    0.0000 C   0  0  0  0  0  0  0  0  0  0  0  0
   -0.7500    1.2990    0.0000 C   0  0  0  0  0  0  0  0  0  0  0  0
   -1.5000    0.0000    0.0000 C   0  0  0  0  0  0  0  0  0  0  0  0
   -0.7500   -1.2990    0.0000 C   0  0  0  0  0  0  0  0  0  0  0  0
  1  2  1  0
  2  3  1  0
  3  4  1  0
  4  5  1  0
  5  6  2  0
  6  7  1  0
  7  8  2  0
  8  9  1  0
  9 10  2  0
  4  2  1  0
 10  5  1  0
M  END
$$$$
1449160
     RDKit          2D

 25 26  0  0  0  0  0  0  0  0999 V2000
    0.7500   -5.3971    0.0000 N   0  0  0  0  0  0  0  0  0  0  0  0
    1.5000   -4.0981    0.0000 C   0  0  0  0  0  0  0  0  0  0  0  0
    2.7990   -3.3481    0.0000 C   0  0  0  0  0  0  0  0  0  0  0  0
    1.5000   -2.5981    0.0000 C   0  0  0  0  0  0  0  0  0  0  0  0
    0.7500   -1.2990    0.0000 C   0  0  0  0  0  0  0  0  0  0  0  0
    1.5000    0.0000    0.0000 C   0  0  0  0  0  0  0  0  0  0  0  0
    0.7500    1.2990    0.0000 C   0  0  0  0  0  0  0  0  0  0  0  0
   -0.7500    1.2990    0.0000 C   0  0  0  0  0  0  0  0  0  0  0  0
   -1.5000    0.0000    0.0000 C   0  0  0  0  0  0  0  0  0  0  0  0
   -0.7500   -1.2990    0.0000 C   0  0  0  0  0  0  0  0  0  0  0  0
    6.0490   -5.3971    0.0000 N   0  0  0  0  0  0  0  0  0  0  0  0
    6.7990   -4.0981    0.0000 C   0  0  0  0  0  0  0  0  0  0  0  0
    8.0981   -3.3481    0.0000 C   0  0  0  0  0  0  0  0  0  0  0  0
    6.7990   -2.5981    0.0000 C   0  0  0  0  0  0  0  0  0  0  0  0
    6.0490   -1.2990    0.0000 C   0  0  0  0  0  0  0  0  0  0  0  0
    6.7990    0.0000    0.0000 C   0  0  0  0  0  0  0  0  0  0  0  0
    6.0490    1.2990    0.0000 C   0  0  0  0  0  0  0  0  0  0  0  0
    4.5490    1.2990    0.0000 C   0  0  0  0  0  0  0  0  0  0  0  0
    3.7990    0.0000    0.0000 C   0  0  0  0  0  0  0  0  0  0  0  0
    4.5490   -1.2990    0.0000 C   0  0  0  0  0  0  0  0  0  0  0  0
    0.0000    2.8481    0.0000 O   0  0  0  0  0  0  0  0  0  0  0  0
    1.2990    3.5981    0.0000 S   0  0  0  0  0  0  0  0  0  0  0  0
    2.0490    2.2990    0.0000 O   0  0  0  0  0  0  0  0  0  0  0  0
    0.5490    4.8971    0.0000 O   0  0  0  0  0  0  0  0  0  0  0  0
    2.5981    4.3481    0.0000 O   0  0  0  0  0  0  0  0  0  0  0  0
  1  2  1  0
  2  3  1  0
  3  4  1  0
  4  5  1  0
  5  6  2  0
  6  7  1  0
  7  8  2  0
  8  9  1  0
  9 10  2  0
 11 12  1  0
 12 13  1  0
 13 14  1  0
 14 15  1  0
 15 16  2  0
 16 17  1  0
 17 18  2  0
 18 19  1  0
 19 20  2  0
 21 22  1  0
 22 23  2  0
 22 24  2  0
 22 25  1  0
  4  2  1  0
 10  5  1  0
 14 12  1  0
 20 15  1  0
M  END
$$$$
190484
     RDKit          2D

 11 11  0  0  0  0  0  0  0  0999 V2000
    3.0000    0.0000    0.0000 N   0  0  0  0  0  0  0  0  0  0  0  0
    1.5000    0.0000    0.0000 C   0  0  0  0  0  0  0  0  0  0  0  0
    0.7500   -1.2990    0.0000 C   0  0  0  0  0  0  0  0  0  0  0  0
   -0.7500   -1.2990    0.0000 C   0  0  0  0  0  0  0  0  0  0  0  0
   -1.5000    0.0000    0.0000 C   0  0  0  0  0  0  0  0  0  0  0  0
   -3.0000    0.0000    0.0000 C   0  0  0  0  0  0  0  0  0  0  0  0
   -3.7500   -1.2990    0.0000 O   0  0  0  0  0  0  0  0  0  0  0  0
   -3.7500    1.2990    0.0000 O   0  0  0  0  0  0  0  0  0  0  0  0
   -0.7500    1.2990    0.0000 C   0  0  0  0  0  0  0  0  0  0  0  0
   -1.5000    2.5981    0.0000 O   0  0  0  0  0  0  0  0  0  0  0  0
    0.7500    1.2990    0.0000 C   0  0  0  0  0  0  0  0  0  0  0  0
  1  2  1  0
  2  3  2  0
  3  4  1  0
  4  5  2  0
  5  6  1  0
  6  7  2  0
  6  8  1  0
  5  9  1  0
  9 10  1  0
  9 11  2  0
 11  2  1  0
M  END
$$$$
674819
     RDKit          2D

 17 18  0  0  0  0  0  0  0  0999 V2000
    3.0000    0.0000    0.0000 N   0  0  0  0  0  0  0  0  0  0  0  0
    1.5000    0.0000    0.0000 C   0  0  0  0  0  0  0  0  0  0  0  0
    0.7500   -1.2990    0.0000 C   0  0  0  0  0  0  0  0  0  0  0  0
   -0.7500   -1.2990    0.0000 C   0  0  0  0  0  0  0  0  0  0  0  0
   -1.5000    0.0000    0.0000 C   0  0  0  0  0  0  0  0  0  0  0  0
   -3.0000    0.0000    0.0000 C   0  0  0  0  0  0  0  0  0  0  0  0
   -3.7500   -1.2990    0.0000 O   0  0  0  0  0  0  0  0  0  0  0  0
   -3.7500    1.2990    0.0000 O   0  0  0  0  0  0  0  0  0  0  0  0
   -5.2500    1.2990    0.0000 C   0  0  0  0  0  0  0  0  0  0  0  0
   -6.0000    2.5981    0.0000 C   0  0  0  0  0  0  0  0  0  0  0  0
   -7.5000    2.5981    0.0000 C   0  0  0  0  0  0  0  0  0  0  0  0
   -8.2500    1.2990    0.0000 C   0  0  0  0  0  0  0  0  0  0  0  0
   -7.5000    0.0000    0.0000 C   0  0  0  0  0  0  0  0  0  0  0  0
   -6.0000    0.0000    0.0000 C   0  0  0  0  0  0  0  0  0  0  0  0
   -0.7500    1.2990    0.0000 C   0  0  0  0  0  0  0  0  0  0  0  0
   -1.5000    2.5981    0.0000 O   0  0  0  0  0  0  0  0  0  0  0  0
    0.7500    1.2990    0.0000 C   0  0  0  0  0  0  0  0  0  0  0  0
  1  2  1  0
  2  3  2  0
  3  4  1  0
  4  5  2  0
  5  6  1  0
  6  7  2  0
  6  8  1  0
  8  9  1  0
  9 10  2  0
 10 11  1  0
 11 12  2  0
 12 13  1  0
 13 14  2  0
  5 15  1  0
 15 16  1  0
 15 17  2  0
 17  2  1  0
 14  9  1  0
M  END
$$$$
126356
     RDKit          2D

 17 18  0  0  0  0  0  0  0  0999 V2000
    3.0000    0.0000    0.0000 N   0  0  0  0  0  0  0  0  0  0  0  0
    1.5000    0.0000    0.0000 C   0  0  0  0  0  0  0  0  0  0  0  0
    0.7500   -1.2990    0.0000 C   0  0  0  0  0  0  0  0  0  0  0  0
   -0.7500   -1.2990    0.0000 C   0  0  0  0  0  0  0  0  0  0  0  0
   -1.5000    0.0000    0.0000 C   0  0  0  0  0  0  0  0  0  0  0  0
   -0.7500    1.2990    0.0000 C   0  0  0  0  0  0  0  0  0  0  0  0
    0.7500    1.2990    0.0000 C   0  0  0  0  0  0  0  0  0  0  0  0
   -3.0000    0.0000    0.0000 S   0  0  0  0  0  0  0  0  0  0  0  0
   -3.0000    1.5000    0.0000 O   0  0  0  0  0  0  0  0  0  0  0  0
   -3.0000   -1.5000    0.0000 O   0  0  0  0  0  0  0  0  0  0  0  0
   -4.5000    0.0000    0.0000 C   0  0  0  0  0  0  0  0  0  0  0  0
   -5.2500    1.2990    0.0000 C   0  0  0  0  0  0  0  0  0  0  0  0
   -6.7500    1.2990    0.0000 C   0  0  0  0  0  0  0  0  0  0  0  0
   -7.5000    0.0000    0.0000 C   0  0  0  0  0  0  0  0  0  0  0  0
   -9.0000    0.0000    0.0000 N   0  0  0  0  0  0  0  0  0  0  0  0
   -6.7500   -1.2990    0.0000 C   0  0  0  0  0  0  0  0  0  0  0  0
   -5.2500   -1.2990    0.0000 C   0  0  0  0  0  0  0  0  0  0  0  0
  1  2  1  0
  2  3  2  0
  3  4  1  0
  4  5  2  0
  5  6  1  0
  6  7  2  0
  5  8  1  0
  8  9  2  0
  8 10  2  0
  8 11  1  0
 11 12  2  0
 12 13  1  0
 13 14  2  0
 14 15  1  0
 14 16  1  0
 16 17  2  0
  7  2  1  0
 17 11  1  0
M  END
$$$$
32842
     RDKit          2D

 17 18  0  0  0  0  0  0  0  0999 V2000
    3.0000    0.0000    0.0000 N   0  0  0  0  0  0  0  0  0  0  0  0
    1.5000    0.0000    0.0000 C   0  0  0  0  0  0  0  0  0  0  0  0
    0.7500   -1.2990    0.0000 C   0  0  0  0  0  0  0  0  0  0  0  0
   -0.7500   -1.2990    0.0000 C   0  0  0  0  0  0  0  0  0  0  0  0
   -1.5000    0.0000    0.0000 C   0  0  0  0  0  0  0  0  0  0  0  0
   -0.7500    1.2990    0.0000 C   0  0  0  0  0  0  0  0  0  0  0  0
    0.7500    1.2990    0.0000 C   0  0  0  0  0  0  0  0  0  0  0  0
   -3.0000    0.0000    0.0000 S   0  0  0  0  0  0  0  0  0  0  0  0
   -3.0000    1.5000    0.0000 O   0  0  0  0  0  0  0  0  0  0  0  0
   -3.0000   -1.5000    0.0000 O   0  0  0  0  0  0  0  0  0  0  0  0
   -4.5000    0.0000    0.0000 N   0  0  0  0  0  0  0  0  0  0  0  0
   -5.2500   -1.2990    0.0000 C   0  0  0  0  0  0  0  0  0  0  0  0
   -6.7500   -1.2990    0.0000 C   0  0  0  0  0  0  0  0  0  0  0  0
   -7.5000   -2.5981    0.0000 C   0  0  0  0  0  0  0  0  0  0  0  0
   -6.7500   -3.8971    0.0000 C   0  0  0  0  0  0  0  0  0  0  0  0
   -5.2500   -3.8971    0.0000 C   0  0  0  0  0  0  0  0  0  0  0  0
   -4.5000   -2.5981    0.0000 N   0  0  0  0  0  0  0  0  0  0  0  0
  1  2  1  0
  2  3  2  0
  3  4  1  0
  4  5  2  0
  5  6  1  0
  6  7  2  0
  5  8  1  0
  8  9  2  0
  8 10  2  0
  8 11  1  0
 11 12  1  0
 12 13  2  0
 13 14  1  0
 14 15  2  0
 15 16  1  0
 16 17  2  0
  7  2  1  0
 17 12  1  0
M  END
$$$$
153330
     RDKit          2D

 22 24  0  0  0  0  0  0  0  0999 V2000
    3.0000    0.0000    0.0000 N   0  0  0  0  0  0  0  0  0  0  0  0
    1.5000    0.0000    0.0000 C   0  0  0  0  0  0  0  0  0  0  0  0
    0.7500   -1.2990    0.0000 C   0  0  0  0  0  0  0  0  0  0  0  0
   -0.7500   -1.2990    0.0000 C   0  0  0  0  0  0  0  0  0  0  0  0
   -1.5000    0.0000    0.0000 C   0  0  0  0  0  0  0  0  0  0  0  0
   -0.7500    1.2990    0.0000 C   0  0  0  0  0  0  0  0  0  0  0  0
    0.7500    1.2990    0.0000 C   0  0  0  0  0  0  0  0  0  0  0  0
   -3.0000    0.0000    0.0000 S   0  0  0  0  0  0  0  0  0  0  0  0
   -3.0000    1.5000    0.0000 O   0  0  0  0  0  0  0  0  0  0  0  0
   -3.0000   -1.5000    0.0000 O   0  0  0  0  0  0  0  0  0  0  0  0
   -4.5000    0.0000    0.0000 N   0  0  0  0  0  0  0  0  0  0  0  0
   -5.2500   -1.2990    0.0000 C   0  0  0  0  0  0  0  0  0  0  0  0
   -4.6399   -2.6694    0.0000 C   0  0  0  0  0  0  0  0  0  0  0  0
   -5.7546   -3.6731    0.0000 C   0  0  0  0  0  0  0  0  0  0  0  0
   -7.0537   -2.9231    0.0000 N   0  0  0  0  0  0  0  0  0  0  0  0
   -6.7418   -1.4558    0.0000 N   0  0  0  0  0  0  0  0  0  0  0  0
   -7.7455   -0.3411    0.0000 C   0  0  0  0  0  0  0  0  0  0  0  0
   -7.2820    1.0855    0.0000 C   0  0  0  0  0  0  0  0  0  0  0  0
   -8.2856    2.2002    0.0000 C   0  0  0  0  0  0  0  0  0  0  0  0
   -9.7529    1.8883    0.0000 C   0  0  0  0  0  0  0  0  0  0  0  0
  -10.2164    0.4617    0.0000 C   0  0  0  0  0  0  0  0  0  0  0  0
   -9.2127   -0.6530    0.0000 C   0  0  0  0  0  0  0  0  0  0  0  0
  1  2  1  0
  2  3  2  0
  3  4  1  0
  4  5  2  0
  5  6  1  0
  6  7  2  0
  5  8  1  0
  8  9  2  0
  8 10  2  0
  8 11  1  0
 11 12  1  0
 12 13  2  0
 13 14  1  0
 14 15  2  0
 15 16  1  0
 16 17  1  0
 17 18  2  0
 18 19  1  0
 19 20  2  0
 20 21  1  0
 21 22  2  0
  7  2  1  0
 16 12  1  0
 22 17  1  0
M  END
$$$$
2131
     RDKit          2D

 17 18  0  0  0  0  0  0  0  0999 V2000
    3.0000    0.0000    0.0000 N   0  0  0  0  0  0  0  0  0  0  0  0
    1.5000    0.0000    0.0000 C   0  0  0  0  0  0  0  0  0  0  0  0
    0.7500   -1.2990    0.0000 C   0  0  0  0  0  0  0  0  0  0  0  0
   -0.7500   -1.2990    0.0000 C   0  0  0  0  0  0  0  0  0  0  0  0
   -1.5000    0.0000    0.0000 C   0  0  0  0  0  0  0  0  0  0  0  0
   -0.7500    1.2990    0.0000 C   0  0  0  0  0  0  0  0  0  0  0  0
    0.7500    1.2990    0.0000 C   0  0  0  0  0  0  0  0  0  0  0  0
   -3.0000    0.0000    0.0000 S   0  0  0  0  0  0  0  0  0  0  0  0
   -3.0000    1.5000    0.0000 O   0  0  0  0  0  0  0  0  0  0  0  0
   -3.0000   -1.5000    0.0000 O   0  0  0  0  0  0  0  0  0  0  0  0
   -4.5000    0.0000    0.0000 N   0  0  0  0  0  0  0  0  0  0  0  0
   -5.2500   -1.2990    0.0000 C   0  0  0  0  0  0  0  0  0  0  0  0
   -6.7500   -1.2990    0.0000 N   0  0  0  0  0  0  0  0  0  0  0  0
   -7.5000   -2.5981    0.0000 C   0  0  0  0  0  0  0  0  0  0  0  0
   -6.7500   -3.8971    0.0000 C   0  0  0  0  0  0  0  0  0  0  0  0
   -5.2500   -3.8971    0.0000 C   0  0  0  0  0  0  0  0  0  0  0  0
   -4.5000   -2.5981    0.0000 N   0  0  0  0  0  0  0  0  0  0  0  0
  1  2  1  0
  2  3  2  0
  3  4  1  0
  4  5  2  0
  5  6  1  0
  6  7  2  0
  5  8  1  0
  8  9  2  0
  8 10  2  0
  8 11  1  0
 11 12  1  0
 12 13  2  0
 13 14  1  0
 14 15  2  0
 15 16  1  0
 16 17  2  0
  7  2  1  0
 17 12  1  0
M  END
$$$$
231062
     RDKit          2D

 16 17  0  0  0  0  0  0  0  0999 V2000
    3.0000    0.0000    0.0000 N   0  0  0  0  0  0  0  0  0  0  0  0
    1.5000    0.0000    0.0000 C   0  0  0  0  0  0  0  0  0  0  0  0
    0.7500   -1.2990    0.0000 C   0  0  0  0  0  0  0  0  0  0  0  0
   -0.7500   -1.2990    0.0000 C   0  0  0  0  0  0  0  0  0  0  0  0
   -1.5000    0.0000    0.0000 C   0  0  0  0  0  0  0  0  0  0  0  0
   -3.0000    0.0000    0.0000 N   0  0  0  0  0  0  0  0  0  0  0  0
   -3.7500    1.2990    0.0000 N   0  0  0  0  0  0  0  0  0  0  0  0
   -5.2500    1.2990    0.0000 C   0  0  0  0  0  0  0  0  0  0  0  0
   -6.0000    2.5981    0.0000 C   0  0  0  0  0  0  0  0  0  0  0  0
   -7.5000    2.5981    0.0000 C   0  0  0  0  0  0  0  0  0  0  0  0
   -8.2500    1.2990    0.0000 C   0  0  0  0  0  0  0  0  0  0  0  0
   -7.5000    0.0000    0.0000 C   0  0  0  0  0  0  0  0  0  0  0  0
   -6.0000    0.0000    0.0000 C   0  0  0  0  0  0  0  0  0  0  0  0
   -0.7500    1.2990    0.0000 C   0  0  0  0  0  0  0  0  0  0  0  0
   -1.5000    2.5981    0.0000 N   0  0  0  0  0  0  0  0  0  0  0  0
    0.7500    1.2990    0.0000 N   0  0  0  0  0  0  0  0  0  0  0  0
  1  2  1  0
  2  3  2  0
  3  4  1  0
  4  5  2  0
  5  6  1  0
  6  7  2  3
  7  8  1  0
  8  9  2  0
  9 10  1  0
 10 11  2  0
 11 12  1  0
 12 13  2  0
  5 14  1  0
 14 15  1  0
 14 16  2  0
 16  2  1  0
 13  8  1  0
M  END
$$$$
33202
     RDKit          2D

 11 11  0  0  0  0  0  0  0  0999 V2000
    3.0000    0.0000    0.0000 N   0  0  0  0  0  0  0  0  0  0  0  0
    1.5000    0.0000    0.0000 C   0  0  0  0  0  0  0  0  0  0  0  0
    0.7500   -1.2990    0.0000 C   0  0  0  0  0  0  0  0  0  0  0  0
   -0.7500   -1.2990    0.0000 C   0  0  0  0  0  0  0  0  0  0  0  0
   -1.5000    0.0000    0.0000 C   0  0  0  0  0  0  0  0  0  0  0  0
   -3.0000    0.0000    0.0000 O   0  0  0  0  0  0  0  0  0  0  0  0
   -0.7500    1.2990    0.0000 C   0  0  0  0  0  0  0  0  0  0  0  0
    0.7500    1.2990    0.0000 C   0  0  0  0  0  0  0  0  0  0  0  0
   -1.5000    2.5981    0.0000 C   0  0  0  0  0  0  0  0  0  0  0  0
   -3.0000    2.5981    0.0000 O   0  0  0  0  0  0  0  0  0  0  0  0
   -0.7500    3.8971    0.0000 O   0  0  0  0  0  0  0  0  0  0  0  0
  1  2  1  0
  2  3  2  0
  3  4  1  0
  4  5  2  0
  5  6  1  0
  5  7  1  0
  7  8  2  0
  7  9  1  0
  9 10  2  0
  9 11  1  0
  8  2  1  0
M  END
$$$$
63100
     RDKit          2D

 20 22  0  0  0  0  0  0  0  0999 V2000
    3.0000    0.0000    0.0000 N   0  0  0  0  0  0  0  0  0  0  0  0
    1.5000    0.0000    0.0000 C   0  0  0  0  0  0  0  0  0  0  0  0
    0.7500   -1.2990    0.0000 C   0  0  0  0  0  0  0  0  0  0  0  0
   -0.7500   -1.2990    0.0000 C   0  0  0  0  0  0  0  0  0  0  0  0
   -1.5000    0.0000    0.0000 C   0  0  0  0  0  0  0  0  0  0  0  0
   -0.7500    1.2990    0.0000 C   0  0  0  0  0  0  0  0  0  0  0  0
   -1.2135    2.7256    0.0000 C   0  0  0  0  0  0  0  0  0  0  0  0
   -2.6401    3.1891    0.0000 O   0  0  0  0  0  0  0  0  0  0  0  0
   -0.0000    3.6073    0.0000 N   0  0  0  0  0  0  0  0  0  0  0  0
   -0.0000    5.1073    0.0000 C   0  0  0  0  0  0  0  0  0  0  0  0
    1.2990    5.8573    0.0000 C   0  0  0  0  0  0  0  0  0  0  0  0
    1.2990    7.3573    0.0000 C   0  0  0  0  0  0  0  0  0  0  0  0
   -0.0000    8.1073    0.0000 C   0  0  0  0  0  0  0  0  0  0  0  0
    0.0000    9.6073    0.0000 O   0  0  0  0  0  0  0  0  0  0  0  0
   -1.2990    7.3573    0.0000 N   0  0  0  0  0  0  0  0  0  0  0  0
   -1.2990    5.8573    0.0000 C   0  0  0  0  0  0  0  0  0  0  0  0
   -2.5981    5.1073    0.0000 O   0  0  0  0  0  0  0  0  0  0  0  0
    1.2135    2.7256    0.0000 C   0  0  0  0  0  0  0  0  0  0  0  0
    2.6401    3.1891    0.0000 O   0  0  0  0  0  0  0  0  0  0  0  0
    0.7500    1.2990    0.0000 C   0  0  0  0  0  0  0  0  0  0  0  0
  1  2  1  0
  2  3  2  0
  3  4  1  0
  4  5  2  0
  5  6  1  0
  6  7  1  0
  7  8  2  0
  7  9  1  0
  9 10  1  0
 10 11  1  0
 11 12  1  0
 12 13  1  0
 13 14  2  0
 13 15  1  0
 15 16  1  0
 16 17  2  0
  9 18  1  0
 18 19  2  0
 18 20  1  0
 20  2  1  0
 20  6  2  0
 16 10  1  0
M  END
$$$$
63649
     RDKit          2D

 19 21  0  0  0  0  0  0  0  0999 V2000
    3.0000    0.0000    0.0000 N   0  0  0  0  0  0  0  0  0  0  0  0
    1.5000    0.0000    0.0000 C   0  0  0  0  0  0  0  0  0  0  0  0
    0.7500   -1.2990    0.0000 C   0  0  0  0  0  0  0  0  0  0  0  0
   -0.7500   -1.2990    0.0000 C   0  0  0  0  0  0  0  0  0  0  0  0
   -1.5000    0.0000    0.0000 C   0  0  0  0  0  0  0  0  0  0  0  0
   -0.7500    1.2990    0.0000 C   0  0  0  0  0  0  0  0  0  0  0  0
   -1.2135    2.7256    0.0000 C   0  0  0  0  0  0  0  0  0  0  0  0
   -2.6401    3.1891    0.0000 O   0  0  0  0  0  0  0  0  0  0  0  0
   -0.0000    3.6073    0.0000 N   0  0  0  0  0  0  0  0  0  0  0  0
    1.2135    2.7256    0.0000 C   0  0  0  0  0  0  0  0  0  0  0  0
    0.7500    1.2990    0.0000 C   0  0  0  0  0  0  0  0  0  0  0  0
   -0.0000    5.1073    0.0000 C   0  0  0  0  0  0  0  0  0  0  0  0
    1.2990    5.8573    0.0000 C   0  0  0  0  0  0  0  0  0  0  0  0
    1.2990    7.3573    0.0000 C   0  0  0  0  0  0  0  0  0  0  0  0
   -0.0000    8.1073    0.0000 C   0  0  0  0  0  0  0  0  0  0  0  0
    0.0000    9.6073    0.0000 O   0  0  0  0  0  0  0  0  0  0  0  0
   -1.2990    7.3573    0.0000 N   0  0  0  0  0  0  0  0  0  0  0  0
   -1.2990    5.8573    0.0000 C   0  0  0  0  0  0  0  0  0  0  0  0
   -2.5981    5.1073    0.0000 O   0  0  0  0  0  0  0  0  0  0  0  0
  1  2  1  0
  2  3  2  0
  3  4  1  0
  4  5  2  0
  5  6  1  0
  6  7  1  0
  7  8  2  0
  7  9  1  0
  9 10  1  0
 10 11  1  0
  9 12  1  0
 12 13  1  0
 13 14  1  0
 14 15  1  0
 15 16  2  0
 15 17  1  0
 17 18  1  0
 18 19  2  0
 11  2  1  0
 11  6  2  0
 18 12  1  0
M  END
$$$$
31289
     RDKit          2D

  7  7  0  0  0  0  0  0  0  0999 V2000
    3.0000    0.0000    0.0000 N   0  0  0  0  0  0  0  0  0  0  0  0
    1.5000    0.0000    0.0000 C   0  0  0  0  0  0  0  0  0  0  0  0
    0.7500   -1.2990    0.0000 C   0  0  0  0  0  0  0  0  0  0  0  0
   -0.7500   -1.2990    0.0000 C   0  0  0  0  0  0  0  0  0  0  0  0
   -1.5000    0.0000    0.0000 N   0  0  0  0  0  0  0  0  0  0  0  0
   -0.7500    1.2990    0.0000 C   0  0  0  0  0  0  0  0  0  0  0  0
    0.7500    1.2990    0.0000 C   0  0  0  0  0  0  0  0  0  0  0  0
  1  2  1  0
  2  3  2  0
  3  4  1  0
  4  5  2  0
  5  6  1  0
  6  7  2  0
  7  2  1  0
M  END
$$$$
1369608
     RDKit          2D

 28 30  0  0  0  0  0  0  0  0999 V2000
    0.4022  -10.3610    0.0000 N   0  0  0  0  0  0  0  0  0  0  0  0
    0.2454   -8.8692    0.0000 C   0  0  0  0  0  0  0  0  0  0  0  0
    1.3601   -7.8655    0.0000 N   0  0  0  0  0  0  0  0  0  0  0  0
    0.7500   -6.4952    0.0000 C   0  0  0  0  0  0  0  0  0  0  0  0
    1.5000   -5.1962    0.0000 C   0  0  0  0  0  0  0  0  0  0  0  0
    0.7500   -3.8971    0.0000 C   0  0  0  0  0  0  0  0  0  0  0  0
   -0.7500   -3.8971    0.0000 O   0  0  0  0  0  0  0  0  0  0  0  0
    1.5000   -2.5981    0.0000 N   0  0  0  0  0  0  0  0  0  0  0  0
    0.7500   -1.2990    0.0000 C   0  0  0  0  0  0  0  0  0  0  0  0
    1.5000    0.0000    0.0000 C   0  0  0  0  0  0  0  0  0  0  0  0
    0.7500    1.2990    0.0000 C   0  0  0  0  0  0  0  0  0  0  0  0
   -0.7500    1.2990    0.0000 C   0  0  0  0  0  0  0  0  0  0  0  0
   -1.5000    2.5981    0.0000 C   0  0  0  0  0  0  0  0  0  0  0  0
   -0.7500    3.8971    0.0000 C   0  0  0  0  0  0  0  0  0  0  0  0
   -1.5000    5.1962    0.0000 N   0  0  0  0  0  0  0  0  0  0  0  0
   -0.7500    6.4952    0.0000 C   0  0  0  0  0  0  0  0  0  0  0  0
   -1.5000    7.7942    0.0000 C   0  0  0  0  0  0  0  0  0  0  0  0
   -3.0000    7.7942    0.0000 O   0  0  0  0  0  0  0  0  0  0  0  0
   -0.7500    9.0933    0.0000 C   0  0  0  0  0  0  0  0  0  0  0  0
    0.7500    9.0933    0.0000 C   0  0  0  0  0  0  0  0  0  0  0  0
    1.5000   10.3923    0.0000 C   0  0  0  0  0  0  0  0  0  0  0  0
    0.7500   11.6913    0.0000 C   0  0  0  0  0  0  0  0  0  0  0  0
   -0.7500   11.6913    0.0000 C   0  0  0  0  0  0  0  0  0  0  0  0
   -1.5000   10.3923    0.0000 C   0  0  0  0  0  0  0  0  0  0  0  0
   -1.5000    0.0000    0.0000 C   0  0  0  0  0  0  0  0  0  0  0  0
   -0.7500   -1.2990    0.0000 C   0  0  0  0  0  0  0  0  0  0  0  0
   -0.7418   -6.6520    0.0000 C   0  0  0  0  0  0  0  0  0  0  0  0
   -1.0537   -8.1192    0.0000 S   0  0  0  0  0  0  0  0  0  0  0  0
  1  2  1  0
  2  3  2  0
  3  4  1  0
  4  5  1  0
  5  6  1  0
  6  7  2  0
  6  8  1  0
  8  9  1  0
  9 10  2  0
 10 11  1  0
 11 12  2  0
 12 13  1  0
 13 14  1  0
 14 15  1  0
 15 16  1  0
 16 17  1  0
 17 18  1  6
 17 19  1  0
 19 20  2  0
 20 21  1  0
 21 22  2  0
 22 23  1  0
 23 24  2  0
 12 25  1  0
 25 26  2  0
  4 27  2  0
 27 28  1  0
 28  2  1  0
 26  9  1  0
 24 19  1  0
M  END
$$$$
454578
     RDKit          2D

 27 29  0  0  0  0  0  0  0  0999 V2000
    6.9115   -3.4934    0.0000 N   0  0  0  0  0  0  0  0  0  0  0  0
    5.9675   -4.6592    0.0000 C   0  0  0  0  0  0  0  0  0  0  0  0
    4.4695   -4.5806    0.0000 N   0  0  0  0  0  0  0  0  0  0  0  0
    3.9320   -5.9810    0.0000 C   0  0  0  0  0  0  0  0  0  0  0  0
    5.0977   -6.9250    0.0000 C   0  0  0  0  0  0  0  0  0  0  0  0
    6.3557   -6.1080    0.0000 S   0  0  0  0  0  0  0  0  0  0  0  0
    2.4831   -6.3692    0.0000 C   0  0  0  0  0  0  0  0  0  0  0  0
    2.0949   -7.8181    0.0000 C   0  0  0  0  0  0  0  0  0  0  0  0
    0.6460   -8.2064    0.0000 C   0  0  0  0  0  0  0  0  0  0  0  0
    0.2577   -9.6553    0.0000 C   0  0  0  0  0  0  0  0  0  0  0  0
    1.3184  -10.7159    0.0000 O   0  0  0  0  0  0  0  0  0  0  0  0
   -1.1911  -10.0435    0.0000 O   0  0  0  0  0  0  0  0  0  0  0  0
    1.4224   -5.3086    0.0000 C   0  0  0  0  0  0  0  0  0  0  0  0
   -0.0265   -5.6968    0.0000 O   0  0  0  0  0  0  0  0  0  0  0  0
    1.8107   -3.8597    0.0000 N   0  0  0  0  0  0  0  0  0  0  0  0
    0.7500   -2.7990    0.0000 C   0  0  0  0  0  0  0  0  0  0  0  0
    0.7500   -1.2990    0.0000 C   0  0  0  0  0  0  0  0  0  0  0  0
    1.5000    0.0000    0.0000 S   0  0  0  0  0  0  0  0  0  0  0  0
    0.7500    1.2990    0.0000 C   0  0  0  0  0  0  0  0  0  0  0  0
   -0.7500    1.2990    0.0000 C   0  0  0  0  0  0  0  0  0  0  0  0
   -1.5000    0.0000    0.0000 C   0  0  0  0  0  0  0  0  0  0  0  0
   -0.7500   -1.2990    0.0000 N   0  0  0  0  0  0  0  0  0  0  0  0
   -0.7500   -2.7990    0.0000 C   0  0  0  0  0  0  0  0  0  0  0  0
   -1.8107   -3.8597    0.0000 O   0  0  0  0  0  0  0  0  0  0  0  0
   -3.0000    0.0000    0.0000 C   0  0  0  0  0  0  0  0  0  0  0  0
   -3.7500   -1.2990    0.0000 O   0  0  0  0  0  0  0  0  0  0  0  0
   -3.7500    1.2990    0.0000 O   0  0  0  0  0  0  0  0  0  0  0  0
  1  2  1  0
  2  3  2  0
  3  4  1  0
  4  5  2  0
  5  6  1  0
  4  7  1  0
  7  8  2  0
  8  9  1  0
  9 10  1  0
 10 11  2  0
 10 12  1  0
  7 13  1  0
 13 14  2  0
 13 15  1  0
 16 15  1  6
 16 17  1  0
 17 18  1  6
 18 19  1  0
 19 20  1  0
 20 21  2  0
 21 22  1  0
 22 23  1  0
 23 24  2  0
 21 25  1  0
 25 26  2  0
 25 27  1  0
  6  2  1  0
 23 16  1  0
 22 17  1  0
M  END
$$$$
84624
     RDKit          2D

 26 28  0  0  0  0  0  0  0  0999 V2000
    6.9115   -3.4934    0.0000 N   0  0  0  0  0  0  0  0  0  0  0  0
    5.9675   -4.6592    0.0000 C   0  0  0  0  0  0  0  0  0  0  0  0
    4.4695   -4.5806    0.0000 N   0  0  0  0  0  0  0  0  0  0  0  0
    3.9320   -5.9810    0.0000 C   0  0  0  0  0  0  0  0  0  0  0  0
    5.0977   -6.9250    0.0000 C   0  0  0  0  0  0  0  0  0  0  0  0
    6.3557   -6.1080    0.0000 S   0  0  0  0  0  0  0  0  0  0  0  0
    2.4831   -6.3692    0.0000 C   0  0  0  0  0  0  0  0  0  0  0  0
    2.0949   -7.8181    0.0000 N   0  0  0  0  0  0  0  0  0  0  0  0
    0.6460   -8.2064    0.0000 O   0  0  0  0  0  0  0  0  0  0  0  0
    1.4224   -5.3086    0.0000 C   0  0  0  0  0  0  0  0  0  0  0  0
   -0.0265   -5.6968    0.0000 O   0  0  0  0  0  0  0  0  0  0  0  0
    1.8107   -3.8597    0.0000 N   0  0  0  0  0  0  0  0  0  0  0  0
    0.7500   -2.7990    0.0000 C   0  0  0  0  0  0  0  0  0  0  0  0
    0.7500   -1.2990    0.0000 C   0  0  0  0  0  0  0  0  0  0  0  0
    1.5000    0.0000    0.0000 S   0  0  0  0  0  0  0  0  0  0  0  0
    0.7500    1.2990    0.0000 C   0  0  0  0  0  0  0  0  0  0  0  0
   -0.7500    1.2990    0.0000 C   0  0  0  0  0  0  0  0  0  0  0  0
   -1.5000    0.0000    0.0000 C   0  0  0  0  0  0  0  0  0  0  0  0
   -0.7500   -1.2990    0.0000 N   0  0  0  0  0  0  0  0  0  0  0  0
   -0.7500   -2.7990    0.0000 C   0  0  0  0  0  0  0  0  0  0  0  0
   -1.8107   -3.8597    0.0000 O   0  0  0  0  0  0  0  0  0  0  0  0
   -3.0000    0.0000    0.0000 C   0  0  0  0  0  0  0  0  0  0  0  0
   -3.7500    1.2990    0.0000 O   0  0  0  0  0  0  0  0  0  0  0  0
   -3.7500   -1.2990    0.0000 O   0  0  0  0  0  0  0  0  0  0  0  0
   -1.5000    2.5981    0.0000 C   0  0  0  0  0  0  0  0  0  0  0  0
   -0.7500    3.8971    0.0000 C   0  0  0  0  0  0  0  0  0  0  0  0
  1  2  1  0
  2  3  2  0
  3  4  1  0
  4  5  2  0
  5  6  1  0
  4  7  1  0
  7  8  2  0
  8  9  1  0
  7 10  1  0
 10 11  2  0
 10 12  1  0
 13 12  1  6
 13 14  1  0
 14 15  1  6
 15 16  1  0
 16 17  1  0
 17 18  2  0
 18 19  1  0
 19 20  1  0
 20 21  2  0
 18 22  1  0
 22 23  2  0
 22 24  1  0
 17 25  1  0
 25 26  2  0
  6  2  1  0
 20 13  1  0
 19 14  1  0
M  END
$$$$
430642
     RDKit          2D

 30 32  0  0  0  0  0  0  0  0999 V2000
    6.9115   -3.4934    0.0000 N   0  0  0  0  0  0  0  0  0  0  0  0
    5.9675   -4.6592    0.0000 C   0  0  0  0  0  0  0  0  0  0  0  0
    4.4695   -4.5806    0.0000 N   0  0  0  0  0  0  0  0  0  0  0  0
    3.9320   -5.9810    0.0000 C   0  0  0  0  0  0  0  0  0  0  0  0
    5.0977   -6.9250    0.0000 C   0  0  0  0  0  0  0  0  0  0  0  0
    6.3557   -6.1080    0.0000 S   0  0  0  0  0  0  0  0  0  0  0  0
    2.4831   -6.3692    0.0000 C   0  0  0  0  0  0  0  0  0  0  0  0
    2.0949   -7.8181    0.0000 N   0  0  0  0  0  0  0  0  0  0  0  0
    0.6460   -8.2064    0.0000 O   0  0  0  0  0  0  0  0  0  0  0  0
    0.2577   -9.6553    0.0000 C   0  0  0  0  0  0  0  0  0  0  0  0
   -1.1911  -10.0435    0.0000 C   0  0  0  0  0  0  0  0  0  0  0  0
   -2.2518   -8.9828    0.0000 O   0  0  0  0  0  0  0  0  0  0  0  0
   -1.5794  -11.4924    0.0000 O   0  0  0  0  0  0  0  0  0  0  0  0
    1.4224   -5.3086    0.0000 C   0  0  0  0  0  0  0  0  0  0  0  0
   -0.0265   -5.6968    0.0000 O   0  0  0  0  0  0  0  0  0  0  0  0
    1.8107   -3.8597    0.0000 N   0  0  0  0  0  0  0  0  0  0  0  0
    0.7500   -2.7990    0.0000 C   0  0  0  0  0  0  0  0  0  0  0  0
    0.7500   -1.2990    0.0000 C   0  0  0  0  0  0  0  0  0  0  0  0
    1.5000    0.0000    0.0000 S   0  0  0  0  0  0  0  0  0  0  0  0
    0.7500    1.2990    0.0000 C   0  0  0  0  0  0  0  0  0  0  0  0
   -0.7500    1.2990    0.0000 C   0  0  0  0  0  0  0  0  0  0  0  0
   -1.5000    0.0000    0.0000 C   0  0  0  0  0  0  0  0  0  0  0  0
   -0.7500   -1.2990    0.0000 N   0  0  0  0  0  0  0  0  0  0  0  0
   -0.7500   -2.7990    0.0000 C   0  0  0  0  0  0  0  0  0  0  0  0
   -1.8107   -3.8597    0.0000 O   0  0  0  0  0  0  0  0  0  0  0  0
   -3.0000    0.0000    0.0000 C   0  0  0  0  0  0  0  0  0  0  0  0
   -3.7500    1.2990    0.0000 O   0  0  0  0  0  0  0  0  0  0  0  0
   -3.7500   -1.2990    0.0000 O   0  0  0  0  0  0  0  0  0  0  0  0
   -1.5000    2.5981    0.0000 C   0  0  0  0  0  0  0  0  0  0  0  0
   -0.7500    3.8971    0.0000 C   0  0  0  0  0  0  0  0  0  0  0  0
  1  2  1  0
  2  3  2  0
  3  4  1  0
  4  5  2  0
  5  6  1  0
  4  7  1  0
  7  8  2  0
  8  9  1  0
  9 10  1  0
 10 11  1  0
 11 12  2  0
 11 13  1  0
  7 14  1  0
 14 15  2  0
 14 16  1  0
 17 16  1  6
 17 18  1  0
 18 19  1  6
 19 20  1  0
 20 21  1  0
 21 22  2  0
 22 23  1  0
 23 24  1  0
 24 25  2  0
 22 26  1  0
 26 27  2  0
 26 28  1  0
 21 29  1  0
 29 30  2  0
  6  2  1  0
 24 17  1  0
 23 18  1  0
M  END
$$$$
624161
     RDKit          2D

 24 26  0  0  0  0  0  0  0  0999 V2000
    2.1328    3.1443    0.0000 N   0  0  0  0  0  0  0  0  0  0  0  0
    0.7062    2.6807    0.0000 C   0  0  0  0  0  0  0  0  0  0  0  0
   -0.4086    3.6844    0.0000 N   0  0  0  0  0  0  0  0  0  0  0  0
   -1.8351    3.2209    0.0000 C   0  0  0  0  0  0  0  0  0  0  0  0
   -2.9499    4.2246    0.0000 F   0  0  0  0  0  0  0  0  0  0  0  0
   -2.1470    1.7537    0.0000 N   0  0  0  0  0  0  0  0  0  0  0  0
   -1.0323    0.7500    0.0000 C   0  0  0  0  0  0  0  0  0  0  0  0
    0.3943    1.2135    0.0000 C   0  0  0  0  0  0  0  0  0  0  0  0
    1.2760    0.0000    0.0000 N   0  0  0  0  0  0  0  0  0  0  0  0
    0.3943   -1.2135    0.0000 C   0  0  0  0  0  0  0  0  0  0  0  0
   -1.0323   -0.7500    0.0000 N   0  0  0  0  0  0  0  0  0  0  0  0
   -2.2458   -1.6317    0.0000 C   0  0  0  0  0  0  0  0  0  0  0  0
   -2.2458   -3.1317    0.0000 O   0  0  0  0  0  0  0  0  0  0  0  0
   -3.6724   -3.5952    0.0000 C   0  0  0  0  0  0  0  0  0  0  0  0
   -4.1359   -5.0218    0.0000 C   0  0  0  0  0  0  0  0  0  0  0  0
   -5.6031   -5.3337    0.0000 O   0  0  0  0  0  0  0  0  0  0  0  0
   -6.0667   -6.7602    0.0000 P   0  0  0  0  0  0  0  0  0  0  0  0
   -7.4933   -6.2967    0.0000 O   0  0  0  0  0  0  0  0  0  0  0  0
   -4.6401   -7.2238    0.0000 O   0  0  0  0  0  0  0  0  0  0  0  0
   -6.5302   -8.1868    0.0000 O   0  0  0  0  0  0  0  0  0  0  0  0
   -4.5541   -2.3817    0.0000 C   0  0  0  0  0  0  0  0  0  0  0  0
   -6.0541   -2.3817    0.0000 O   0  0  0  0  0  0  0  0  0  0  0  0
   -3.6724   -1.1682    0.0000 C   0  0  0  0  0  0  0  0  0  0  0  0
   -4.1359    0.2584    0.0000 O   0  0  0  0  0  0  0  0  0  0  0  0
  1  2  1  0
  2  3  2  0
  3  4  1  0
  4  5  1  0
  4  6  2  0
  6  7  1  0
  7  8  2  0
  8  9  1  0
  9 10  2  0
 10 11  1  0
 12 11  1  6
 12 13  1  0
 13 14  1  0
 14 15  1  6
 15 16  1  0
 16 17  1  0
 17 18  2  0
 17 19  1  0
 17 20  1  0
 14 21  1  0
 21 22  1  1
 21 23  1  0
 23 24  1  6
  8  2  1  0
 11  7  1  0
 23 12  1  0
M  END
$$$$
17411
     RDKit          2D

 19 21  0  0  0  0  0  0  0  0999 V2000
    3.0000    0.0000    0.0000 N   0  0  0  0  0  0  0  0  0  0  0  0
    1.5000    0.0000    0.0000 C   0  0  0  0  0  0  0  0  0  0  0  0
    0.7500   -1.2990    0.0000 N   0  0  0  0  0  0  0  0  0  0  0  0
   -0.7500   -1.2990    0.0000 C   0  0  0  0  0  0  0  0  0  0  0  0
   -1.5000   -2.5981    0.0000 N   0  0  0  0  0  0  0  0  0  0  0  0
   -1.5000    0.0000    0.0000 C   0  0  0  0  0  0  0  0  0  0  0  0
   -3.0000    0.0000    0.0000 N   0  0  0  0  0  0  0  0  0  0  0  0
   -3.7500    1.2990    0.0000 C   0  0  0  0  0  0  0  0  0  0  0  0
   -3.0000    2.5981    0.0000 C   0  0  0  0  0  0  0  0  0  0  0  0
   -3.7500    3.8971    0.0000 N   0  0  0  0  0  0  0  0  0  0  0  0
   -1.5000    2.5981    0.0000 N   0  0  0  0  0  0  0  0  0  0  0  0
   -0.7500    1.2990    0.0000 C   0  0  0  0  0  0  0  0  0  0  0  0
    0.7500    1.2990    0.0000 N   0  0  0  0  0  0  0  0  0  0  0  0
   -5.2500    1.2990    0.0000 C   0  0  0  0  0  0  0  0  0  0  0  0
   -6.0000    2.5981    0.0000 C   0  0  0  0  0  0  0  0  0  0  0  0
   -7.5000    2.5981    0.0000 C   0  0  0  0  0  0  0  0  0  0  0  0
   -8.2500    1.2990    0.0000 C   0  0  0  0  0  0  0  0  0  0  0  0
   -7.5000    0.0000    0.0000 C   0  0  0  0  0  0  0  0  0  0  0  0
   -6.0000    0.0000    0.0000 C   0  0  0  0  0  0  0  0  0  0  0  0
  1  2  1  0
  2  3  2  0
  3  4  1  0
  4  5  1  0
  4  6  2  0
  6  7  1  0
  7  8  2  0
  8  9  1  0
  9 10  1  0
  9 11  2  0
 11 12  1  0
 12 13  2  0
  8 14  1  0
 14 15  2  0
 15 16  1  0
 16 17  2  0
 17 18  1  0
 18 19  2  0
 13  2  1  0
 12  6  1  0
 19 14  1  0
M  END
$$$$
321707
     RDKit          2D

 21 24  0  0  0  0  0  0  0  0999 V2000
   -2.9499    4.2246    0.0000 N   0  0  0  0  0  0  0  0  0  0  0  0
   -1.8351    3.2209    0.0000 C   0  0  0  0  0  0  0  0  0  0  0  0
   -0.4086    3.6844    0.0000 N   0  0  0  0  0  0  0  0  0  0  0  0
    0.7062    2.6807    0.0000 C   0  0  0  0  0  0  0  0  0  0  0  0
    2.1328    3.1443    0.0000 N   0  0  0  0  0  0  0  0  0  0  0  0
    2.4446    4.6115    0.0000 C   0  0  0  0  0  0  0  0  0  0  0  0
    1.9811    6.0381    0.0000 C   0  0  0  0  0  0  0  0  0  0  0  0
    3.4483    5.7262    0.0000 C   0  0  0  0  0  0  0  0  0  0  0  0
    0.3943    1.2135    0.0000 C   0  0  0  0  0  0  0  0  0  0  0  0
    1.2760    0.0000    0.0000 N   0  0  0  0  0  0  0  0  0  0  0  0
    0.3943   -1.2135    0.0000 C   0  0  0  0  0  0  0  0  0  0  0  0
   -1.0323   -0.7500    0.0000 N   0  0  0  0  0  0  0  0  0  0  0  0
   -2.2458   -1.6317    0.0000 C   0  0  0  0  0  0  0  0  0  0  0  0
   -2.2458   -3.1317    0.0000 C   0  0  0  0  0  0  0  0  0  0  0  0
   -3.6724   -3.5952    0.0000 C   0  0  0  0  0  0  0  0  0  0  0  0
   -4.1359   -5.0218    0.0000 C   0  0  0  0  0  0  0  0  0  0  0  0
   -5.6031   -5.3337    0.0000 O   0  0  0  0  0  0  0  0  0  0  0  0
   -4.5541   -2.3817    0.0000 C   0  0  0  0  0  0  0  0  0  0  0  0
   -3.6724   -1.1682    0.0000 C   0  0  0  0  0  0  0  0  0  0  0  0
   -1.0323    0.7500    0.0000 C   0  0  0  0  0  0  0  0  0  0  0  0
   -2.1470    1.7537    0.0000 N   0  0  0  0  0  0  0  0  0  0  0  0
  1  2  1  0
  2  3  2  0
  3  4  1  0
  4  5  1  0
  5  6  1  0
  6  7  1  0
  7  8  1  0
  4  9  2  0
  9 10  1  0
 10 11  2  0
 11 12  1  0
 13 12  1  6
 13 14  1  0
 14 15  1  0
 15 16  1  6
 16 17  1  0
 15 18  1  0
 18 19  2  0
 12 20  1  0
 20 21  2  0
 21  2  1  0
  8  6  1  0
 20  9  1  0
 19 13  1  0
M  END
$$$$
674570
     RDKit          2D

 26 28  0  0  0  0  0  0  0  0999 V2000
   -2.9499    4.2246    0.0000 N   0  0  0  0  0  0  0  0  0  0  0  0
   -1.8351    3.2209    0.0000 C   0  0  0  0  0  0  0  0  0  0  0  0
   -0.4086    3.6844    0.0000 N   0  0  0  0  0  0  0  0  0  0  0  0
    0.7062    2.6807    0.0000 C   0  0  0  0  0  0  0  0  0  0  0  0
    2.1328    3.1443    0.0000 N   0  0  0  0  0  0  0  0  0  0  0  0
    2.4446    4.6115    0.0000 C   0  0  0  0  0  0  0  0  0  0  0  0
    1.9811    6.0381    0.0000 C   0  0  0  0  0  0  0  0  0  0  0  0
    3.4483    5.7262    0.0000 C   0  0  0  0  0  0  0  0  0  0  0  0
    0.3943    1.2135    0.0000 C   0  0  0  0  0  0  0  0  0  0  0  0
    1.2760    0.0000    0.0000 N   0  0  0  0  0  0  0  0  0  0  0  0
    0.3943   -1.2135    0.0000 C   0  0  0  0  0  0  0  0  0  0  0  0
   -1.0323   -0.7500    0.0000 N   0  0  0  0  0  0  0  0  0  0  0  0
   -2.2458   -1.6317    0.0000 C   0  0  0  0  0  0  0  0  0  0  0  0
   -2.2458   -3.1317    0.0000 C   0  0  0  0  0  0  0  0  0  0  0  0
   -3.6724   -3.5952    0.0000 C   0  0  0  0  0  0  0  0  0  0  0  0
   -4.1359   -5.0218    0.0000 C   0  0  0  0  0  0  0  0  0  0  0  0
   -5.6031   -5.3337    0.0000 O   0  0  0  0  0  0  0  0  0  0  0  0
   -4.5541   -2.3817    0.0000 C   0  0  0  0  0  0  0  0  0  0  0  0
   -3.6724   -1.1682    0.0000 C   0  0  0  0  0  0  0  0  0  0  0  0
   -1.0323    0.7500    0.0000 C   0  0  0  0  0  0  0  0  0  0  0  0
   -2.1470    1.7537    0.0000 N   0  0  0  0  0  0  0  0  0  0  0  0
    4.4483    0.0000    0.0000 O   0  0  0  0  0  0  0  0  0  0  0  0
    5.7474    0.7500    0.0000 S   0  0  0  0  0  0  0  0  0  0  0  0
    6.4974   -0.5490    0.0000 O   0  0  0  0  0  0  0  0  0  0  0  0
    4.9974    2.0490    0.0000 O   0  0  0  0  0  0  0  0  0  0  0  0
    7.0464    1.5000    0.0000 O   0  0  0  0  0  0  0  0  0  0  0  0
  1  2  1  0
  2  3  2  0
  3  4  1  0
  4  5  1  0
  5  6  1  0
  6  7  1  0
  7  8  1  0
  4  9  2  0
  9 10  1  0
 10 11  2  0
 11 12  1  0
 13 12  1  6
 13 14  1  0
 14 15  1  0
 15 16  1  6
 16 17  1  0
 15 18  1  0
 18 19  2  0
 12 20  1  0
 20 21  2  0
 22 23  1  0
 23 24  2  0
 23 25  2  0
 23 26  1  0
 21  2  1  0
  8  6  1  0
 20  9  1  0
 19 13  1  0
M  END
$$$$
365284
     RDKit          2D

 18 19  0  0  0  0  0  0  0  0999 V2000
   -2.9499    4.2246    0.0000 N   0  0  0  0  0  0  0  0  0  0  0  0
   -1.8351    3.2209    0.0000 C   0  0  0  0  0  0  0  0  0  0  0  0
   -0.4086    3.6844    0.0000 N   0  0  0  0  0  0  0  0  0  0  0  0
    0.7062    2.6807    0.0000 C   0  0  0  0  0  0  0  0  0  0  0  0
    2.1328    3.1443    0.0000 O   0  0  0  0  0  0  0  0  0  0  0  0
    0.3943    1.2135    0.0000 C   0  0  0  0  0  0  0  0  0  0  0  0
    1.2760    0.0000    0.0000 N   0  0  0  0  0  0  0  0  0  0  0  0
    0.3943   -1.2135    0.0000 C   0  0  0  0  0  0  0  0  0  0  0  0
   -1.0323   -0.7500    0.0000 N   0  0  0  0  0  0  0  0  0  0  0  0
   -2.2458   -1.6317    0.0000 C   0  0  0  0  0  0  0  0  0  0  0  0
   -2.0890   -3.1235    0.0000 O   0  0  0  0  0  0  0  0  0  0  0  0
   -3.3025   -4.0051    0.0000 C   0  0  0  0  0  0  0  0  0  0  0  0
   -3.1458   -5.4969    0.0000 C   0  0  0  0  0  0  0  0  0  0  0  0
   -4.3593   -6.3786    0.0000 O   0  0  0  0  0  0  0  0  0  0  0  0
   -4.6729   -3.3950    0.0000 C   0  0  0  0  0  0  0  0  0  0  0  0
   -5.8864   -4.2767    0.0000 O   0  0  0  0  0  0  0  0  0  0  0  0
   -1.0323    0.7500    0.0000 C   0  0  0  0  0  0  0  0  0  0  0  0
   -2.1470    1.7537    0.0000 N   0  0  0  0  0  0  0  0  0  0  0  0
  1  2  1  0
  2  3  2  0
  3  4  1  0
  4  5  1  0
  4  6  2  0
  6  7  1  0
  7  8  2  0
  8  9  1  0
  9 10  1  0
 10 11  1  0
 11 12  1  0
 12 13  1  0
 13 14  1  0
 12 15  1  0
 15 16  1  0
  9 17  1  0
 17 18  2  0
 18  2  1  0
 17  6  1  0
M  END
$$$$
365538
     RDKit          2D

 16 17  0  0  0  0  0  0  0  0999 V2000
   -2.9499    4.2246    0.0000 N   0  0  0  0  0  0  0  0  0  0  0  0
   -1.8351    3.2209    0.0000 C   0  0  0  0  0  0  0  0  0  0  0  0
   -0.4086    3.6844    0.0000 N   0  0  0  0  0  0  0  0  0  0  0  0
    0.7062    2.6807    0.0000 C   0  0  0  0  0  0  0  0  0  0  0  0
    2.1328    3.1443    0.0000 O   0  0  0  0  0  0  0  0  0  0  0  0
    0.3943    1.2135    0.0000 C   0  0  0  0  0  0  0  0  0  0  0  0
    1.2760    0.0000    0.0000 N   0  0  0  0  0  0  0  0  0  0  0  0
    0.3943   -1.2135    0.0000 C   0  0  0  0  0  0  0  0  0  0  0  0
   -1.0323   -0.7500    0.0000 N   0  0  0  0  0  0  0  0  0  0  0  0
   -2.2458   -1.6317    0.0000 C   0  0  0  0  0  0  0  0  0  0  0  0
   -2.0890   -3.1235    0.0000 O   0  0  0  0  0  0  0  0  0  0  0  0
   -3.3025   -4.0051    0.0000 C   0  0  0  0  0  0  0  0  0  0  0  0
   -3.1458   -5.4969    0.0000 C   0  0  0  0  0  0  0  0  0  0  0  0
   -4.3593   -6.3786    0.0000 O   0  0  0  0  0  0  0  0  0  0  0  0
   -1.0323    0.7500    0.0000 C   0  0  0  0  0  0  0  0  0  0  0  0
   -2.1470    1.7537    0.0000 N   0  0  0  0  0  0  0  0  0  0  0  0
  1  2  1  0
  2  3  2  0
  3  4  1  0
  4  5  1  0
  4  6  2  0
  6  7  1  0
  7  8  2  0
  8  9  1  0
  9 10  1  0
 10 11  1  0
 11 12  1  0
 12 13  1  0
 13 14  1  0
  9 15  1  0
 15 16  2  0
 16  2  1  0
 15  6  1  0
M  END
$$$$
38898
     RDKit          2D

 15 16  0  0  0  0  0  0  0  0999 V2000
   -0.0000   -5.1073    0.0000 N   0  0  0  0  0  0  0  0  0  0  0  0
   -0.0000   -3.6073    0.0000 C   0  0  0  0  0  0  0  0  0  0  0  0
    1.2135   -2.7256    0.0000 N   0  0  0  0  0  0  0  0  0  0  0  0
    0.7500   -1.2990    0.0000 C   0  0  0  0  0  0  0  0  0  0  0  0
    1.5000    0.0000    0.0000 C   0  0  0  0  0  0  0  0  0  0  0  0
    0.7500    1.2990    0.0000 C   0  0  0  0  0  0  0  0  0  0  0  0
   -0.7500    1.2990    0.0000 C   0  0  0  0  0  0  0  0  0  0  0  0
   -1.5000    2.5981    0.0000 O   0  0  0  0  0  0  0  0  0  0  0  0
   -0.7500    3.8971    0.0000 C   0  0  0  0  0  0  0  0  0  0  0  0
    0.0000    5.1962    0.0000 F   0  0  0  0  0  0  0  0  0  0  0  0
   -2.0490    4.6471    0.0000 F   0  0  0  0  0  0  0  0  0  0  0  0
    0.5490    3.1471    0.0000 F   0  0  0  0  0  0  0  0  0  0  0  0
   -1.5000    0.0000    0.0000 C   0  0  0  0  0  0  0  0  0  0  0  0
   -0.7500   -1.2990    0.0000 C   0  0  0  0  0  0  0  0  0  0  0  0
   -1.2135   -2.7256    0.0000 S   0  0  0  0  0  0  0  0  0  0  0  0
  1  2  1  0
  2  3  2  0
  3  4  1  0
  4  5  2  0
  5  6  1  0
  6  7  2  0
  7  8  1  0
  8  9  1  0
  9 10  1  0
  9 11  1  0
  9 12  1  0
  7 13  1  0
 13 14  2  0
 14 15  1  0
 15  2  1  0
 14  4  1  0
M  END
$$$$
1214046
     RDKit          2D

 33 37  0  0  0  0  0  0  0  0999 V2000
    3.0000    0.0000    0.0000 N   0  0  0  0  0  0  0  0  0  0  0  0
    1.5000    0.0000    0.0000 C   0  0  0  0  0  0  0  0  0  0  0  0
    0.7500   -1.2990    0.0000 N   0  0  0  0  0  0  0  0  0  0  0  0
   -0.7500   -1.2990    0.0000 C   0  0  0  0  0  0  0  0  0  0  0  0
   -1.5000    0.0000    0.0000 N   0  0  0  0  0  0  0  0  0  0  0  0
   -0.7500    1.2990    0.0000 C   0  0  0  0  0  0  0  0  0  0  0  0
    0.7500    1.2990    0.0000 C   0  0  0  0  0  0  0  0  0  0  0  0
    1.2135    2.7256    0.0000 C   0  0  0  0  0  0  0  0  0  0  0  0
   -0.0000    3.6073    0.0000 N   0  0  0  0  0  0  0  0  0  0  0  0
   -1.2135    2.7256    0.0000 N   0  0  0  0  0  0  0  0  0  0  0  0
   -2.6401    3.1891    0.0000 C   0  0  0  0  0  0  0  0  0  0  0  0
   -2.9520    4.6564    0.0000 C   0  0  0  0  0  0  0  0  0  0  0  0
   -4.3786    5.1199    0.0000 C   0  0  0  0  0  0  0  0  0  0  0  0
   -5.4933    4.1162    0.0000 C   0  0  0  0  0  0  0  0  0  0  0  0
   -5.1814    2.6490    0.0000 N   0  0  0  0  0  0  0  0  0  0  0  0
   -3.7548    2.1855    0.0000 C   0  0  0  0  0  0  0  0  0  0  0  0
   -6.2961    1.6453    0.0000 C   0  0  0  0  0  0  0  0  0  0  0  0
   -5.9843    0.1781    0.0000 O   0  0  0  0  0  0  0  0  0  0  0  0
   -7.7227    2.1088    0.0000 C   0  0  0  0  0  0  0  0  0  0  0  0
   -8.8374    1.1051    0.0000 C   0  0  0  0  0  0  0  0  0  0  0  0
    2.6401    3.1891    0.0000 C   0  0  0  0  0  0  0  0  0  0  0  0
    3.7548    2.1855    0.0000 C   0  0  0  0  0  0  0  0  0  0  0  0
    5.1814    2.6490    0.0000 C   0  0  0  0  0  0  0  0  0  0  0  0
    5.4933    4.1162    0.0000 C   0  0  0  0  0  0  0  0  0  0  0  0
    6.9199    4.5797    0.0000 O   0  0  0  0  0  0  0  0  0  0  0  0
    8.0346    3.5760    0.0000 C   0  0  0  0  0  0  0  0  0  0  0  0
    7.7227    2.1088    0.0000 C   0  0  0  0  0  0  0  0  0  0  0  0
    8.8374    1.1051    0.0000 C   0  0  0  0  0  0  0  0  0  0  0  0
   10.2640    1.5686    0.0000 C   0  0  0  0  0  0  0  0  0  0  0  0
   10.5759    3.0359    0.0000 C   0  0  0  0  0  0  0  0  0  0  0  0
    9.4612    4.0396    0.0000 C   0  0  0  0  0  0  0  0  0  0  0  0
    4.3786    5.1199    0.0000 C   0  0  0  0  0  0  0  0  0  0  0  0
    2.9520    4.6564    0.0000 C   0  0  0  0  0  0  0  0  0  0  0  0
  1  2  1  0
  2  3  2  0
  3  4  1  0
  4  5  2  0
  5  6  1  0
  6  7  2  0
  7  8  1  0
  8  9  2  0
  9 10  1  0
 11 10  1  1
 11 12  1  0
 12 13  1  0
 13 14  1  0
 14 15  1  0
 15 16  1  0
 15 17  1  0
 17 18  2  0
 17 19  1  0
 19 20  2  0
  8 21  1  0
 21 22  2  0
 22 23  1  0
 23 24  2  0
 24 25  1  0
 25 26  1  0
 26 27  2  0
 27 28  1  0
 28 29  2  0
 29 30  1  0
 30 31  2  0
 24 32  1  0
 32 33  2  0
  7  2  1  0
 10  6  1  0
 16 11  1  0
 33 21  1  0
 31 26  1  0
M  END
$$$$
38727
     RDKit          2D

 16 17  0  0  0  0  0  0  0  0999 V2000
    3.0000    0.0000    0.0000 N   0  0  0  0  0  0  0  0  0  0  0  0
    1.5000    0.0000    0.0000 C   0  0  0  0  0  0  0  0  0  0  0  0
    0.7500   -1.2990    0.0000 N   0  0  0  0  0  0  0  0  0  0  0  0
   -0.7500   -1.2990    0.0000 N   0  0  0  0  0  0  0  0  0  0  0  0
   -1.5000    0.0000    0.0000 C   0  0  0  0  0  0  0  0  0  0  0  0
   -0.7500    1.2990    0.0000 C   0  0  0  0  0  0  0  0  0  0  0  0
   -1.5000    2.5981    0.0000 N   0  0  0  0  0  0  0  0  0  0  0  0
    0.7500    1.2990    0.0000 N   0  0  0  0  0  0  0  0  0  0  0  0
   -3.0000    0.0000    0.0000 C   0  0  0  0  0  0  0  0  0  0  0  0
   -3.7500    1.2990    0.0000 C   0  0  0  0  0  0  0  0  0  0  0  0
   -5.2500    1.2990    0.0000 C   0  0  0  0  0  0  0  0  0  0  0  0
   -6.0000    0.0000    0.0000 C   0  0  0  0  0  0  0  0  0  0  0  0
   -5.2500   -1.2990    0.0000 C   0  0  0  0  0  0  0  0  0  0  0  0
   -6.0000   -2.5981    0.0000 Cl  0  0  0  0  0  0  0  0  0  0  0  0
   -3.7500   -1.2990    0.0000 C   0  0  0  0  0  0  0  0  0  0  0  0
   -3.0000   -2.5981    0.0000 Cl  0  0  0  0  0  0  0  0  0  0  0  0
  1  2  1  0
  2  3  2  0
  3  4  1  0
  4  5  2  0
  5  6  1  0
  6  7  1  0
  6  8  2  0
  5  9  1  0
  9 10  2  0
 10 11  1  0
 11 12  2  0
 12 13  1  0
 13 14  1  0
 13 15  2  0
 15 16  1  0
  8  2  1  0
 15  9  1  0
M  END
$$$$
32869
     RDKit          2D

 14 14  0  0  0  0  0  0  0  0999 V2000
    5.2500    1.2990    0.0000 N   0  0  0  0  0  0  0  0  0  0  0  0
    3.7500    1.2990    0.0000 C   0  0  0  0  0  0  0  0  0  0  0  0
    3.0000    0.0000    0.0000 C   0  0  0  0  0  0  0  0  0  0  0  0
    3.7500   -1.2990    0.0000 C   0  0  0  0  0  0  0  0  0  0  0  0
    5.2500   -1.2990    0.0000 C   0  0  0  0  0  0  0  0  0  0  0  0
    6.0000    0.0000    0.0000 O   0  0  0  0  0  0  0  0  0  0  0  0
    6.0000   -2.5981    0.0000 O   0  0  0  0  0  0  0  0  0  0  0  0
    1.5000    0.0000    0.0000 C   0  0  0  0  0  0  0  0  0  0  0  0
    0.7500   -1.2990    0.0000 C   0  0  0  0  0  0  0  0  0  0  0  0
   -0.7500   -1.2990    0.0000 C   0  0  0  0  0  0  0  0  0  0  0  0
   -1.5000    0.0000    0.0000 C   0  0  0  0  0  0  0  0  0  0  0  0
   -3.0000    0.0000    0.0000 Cl  0  0  0  0  0  0  0  0  0  0  0  0
   -0.7500    1.2990    0.0000 C   0  0  0  0  0  0  0  0  0  0  0  0
    0.7500    1.2990    0.0000 C   0  0  0  0  0  0  0  0  0  0  0  0
  1  2  1  0
  2  3  1  0
  3  4  1  0
  4  5  1  0
  5  6  2  0
  5  7  1  0
  3  8  1  0
  8  9  2  0
  9 10  1  0
 10 11  2  0
 11 12  1  0
 11 13  1  0
 13 14  2  0
 14  8  1  0
M  END
$$$$
88316
     RDKit          2D

 12 12  0  0  0  0  0  0  0  0999 V2000
    2.3886   -2.4414    0.0000 N   0  0  0  0  0  0  0  0  0  0  0  0
    2.6491   -0.9642    0.0000 C   0  0  0  0  0  0  0  0  0  0  0  0
    1.5000    0.0000    0.0000 C   0  0  0  0  0  0  0  0  0  0  0  0
    2.6491    0.9642    0.0000 C   0  0  0  0  0  0  0  0  0  0  0  0
    4.0586    0.4512    0.0000 C   0  0  0  0  0  0  0  0  0  0  0  0
    4.3191   -1.0261    0.0000 O   0  0  0  0  0  0  0  0  0  0  0  0
    5.2077    1.4153    0.0000 O   0  0  0  0  0  0  0  0  0  0  0  0
    0.7500   -1.2990    0.0000 C   0  0  0  0  0  0  0  0  0  0  0  0
   -0.7500   -1.2990    0.0000 C   0  0  0  0  0  0  0  0  0  0  0  0
   -1.5000    0.0000    0.0000 C   0  0  0  0  0  0  0  0  0  0  0  0
   -0.7500    1.2990    0.0000 C   0  0  0  0  0  0  0  0  0  0  0  0
    0.7500    1.2990    0.0000 C   0  0  0  0  0  0  0  0  0  0  0  0
  1  2  1  0
  2  3  1  0
  3  4  1  0
  4  5  1  0
  5  6  2  0
  5  7  1  0
  3  8  1  0
  8  9  1  0
  9 10  1  0
 10 11  1  0
 11 12  1  0
 12  3  1  0
M  END
$$$$
675749
     RDKit          2D

  9  8  0  0  0  0  0  0  0  0999 V2000
    3.8971    2.5000    0.0000 N   0  0  0  0  0  0  0  0  0  0  0  0
    2.5981    1.7500    0.0000 C   0  0  0  0  0  0  0  0  0  0  0  0
    1.2990    2.5000    0.0000 C   0  0  0  0  0  0  0  0  0  0  0  0
    0.0000    1.7500    0.0000 C   0  0  0  0  0  0  0  0  0  0  0  0
    3.1160   -1.2990    0.0000 Cl  0  0  0  0  0  0  0  0  0  0  0  0
    2.3660    0.0000    0.0000 C   0  0  0  0  0  0  0  0  0  0  0  0
    0.8660    0.0000    0.0000 C   0  0  0  0  0  0  0  0  0  0  0  0
   -0.4330    0.7500    0.0000 C   0  0  0  0  0  0  0  0  0  0  0  0
   -0.4330   -0.7500    0.0000 O   0  0  0  0  0  0  0  0  0  0  0  0
  1  2  1  0
  2  3  1  0
  3  4  2  0
  5  6  1  0
  6  7  1  0
  7  8  1  0
  8  9  1  0
  9  7  1  0
M  END
$$$$
70674
     RDKit          2D

 14 13  0  0  0  0  0  0  0  0999 V2000
   -1.2990    0.7500    0.0000 N   0  0  0  0  0  0  0  0  0  0  0  0
    0.0000   -0.0000    0.0000 C   0  0  0  0  0  0  0  0  0  0  0  0
    1.2990    0.7500    0.0000 C   0  0  0  0  0  0  0  0  0  0  0  0
    2.5981   -0.0000    0.0000 C   0  0  0  0  0  0  0  0  0  0  0  0
    3.8971    0.7500    0.0000 C   0  0  0  0  0  0  0  0  0  0  0  0
    5.1962    1.5000    0.0000 O   0  0  0  0  0  0  0  0  0  0  0  0
    4.6471   -0.5490    0.0000 P   0  0  0  0  0  0  0  0  0  0  0  0
    5.3971   -1.8481    0.0000 O   0  0  0  0  0  0  0  0  0  0  0  0
    3.3481   -1.2990    0.0000 O   0  0  0  0  0  0  0  0  0  0  0  0
    5.9462    0.2010    0.0000 O   0  0  0  0  0  0  0  0  0  0  0  0
    3.1471    2.0490    0.0000 P   0  0  0  0  0  0  0  0  0  0  0  0
    2.3971    3.3481    0.0000 O   0  0  0  0  0  0  0  0  0  0  0  0
    4.4462    2.7990    0.0000 O   0  0  0  0  0  0  0  0  0  0  0  0
    1.7052    1.6357    0.0000 O   0  0  0  0  0  0  0  0  0  0  0  0
  1  2  1  0
  2  3  1  0
  3  4  1  0
  4  5  1  0
  5  6  1  0
  5  7  1  0
  7  8  2  0
  7  9  1  0
  7 10  1  0
  5 11  1  0
 11 12  2  0
 11 13  1  0
 11 14  1  0
M  END
$$$$
127755
     RDKit          2D

  9  8  0  0  0  0  0  0  0  0999 V2000
   -1.2990    0.7500    0.0000 N   0  0  0  0  0  0  0  0  0  0  0  0
    0.0000    0.0000    0.0000 C   0  0  0  0  0  0  0  0  0  0  0  0
    1.2990    0.7500    0.0000 C   0  0  0  0  0  0  0  0  0  0  0  0
    2.5981   -0.0000    0.0000 C   0  0  0  0  0  0  0  0  0  0  0  0
    3.8971    0.7500    0.0000 C   0  0  0  0  0  0  0  0  0  0  0  0
    5.1962   -0.0000    0.0000 C   0  0  0  0  0  0  0  0  0  0  0  0
    6.4952    0.7500    0.0000 C   0  0  0  0  0  0  0  0  0  0  0  0
    6.4952    2.2500    0.0000 O   0  0  0  0  0  0  0  0  0  0  0  0
    7.7942   -0.0000    0.0000 O   0  0  0  0  0  0  0  0  0  0  0  0
  1  2  1  0
  2  3  1  0
  3  4  1  0
  4  5  1  0
  5  6  1  0
  6  7  1  0
  7  8  2  0
  7  9  1  0
M  END
$$$$
230659
     RDKit          2D

 29 30  0  0  0  0  0  0  0  0999 V2000
    9.7500   -9.0933    0.0000 N   0  0  0  0  0  0  0  0  0  0  0  0
    8.2500   -9.0933    0.0000 C   0  0  0  0  0  0  0  0  0  0  0  0
    7.5000   -7.7942    0.0000 C   0  0  0  0  0  0  0  0  0  0  0  0
    6.0000   -7.7942    0.0000 C   0  0  0  0  0  0  0  0  0  0  0  0
    5.2500   -6.4952    0.0000 C   0  0  0  0  0  0  0  0  0  0  0  0
    3.7500   -6.4952    0.0000 C   0  0  0  0  0  0  0  0  0  0  0  0
    3.0000   -5.1962    0.0000 N   0  0  0  0  0  0  0  0  0  0  0  0
    3.7500   -3.8971    0.0000 C   0  0  0  0  0  0  0  0  0  0  0  0
    3.0000   -2.5981    0.0000 C   0  0  0  0  0  0  0  0  0  0  0  0
    1.5000   -2.5981    0.0000 C   0  0  0  0  0  0  0  0  0  0  0  0
    0.7500   -1.2990    0.0000 C   0  0  0  0  0  0  0  0  0  0  0  0
   -0.7500   -1.2990    0.0000 C   0  0  0  0  0  0  0  0  0  0  0  0
   -1.5000    0.0000    0.0000 C   0  0  0  0  0  0  0  0  0  0  0  0
   -0.7500    1.2990    0.0000 C   0  0  0  0  0  0  0  0  0  0  0  0
    0.7500    1.2990    0.0000 C   0  0  0  0  0  0  0  0  0  0  0  0
    1.5000    0.0000    0.0000 C   0  0  0  0  0  0  0  0  0  0  0  0
    5.2500   -3.8971    0.0000 C   0  0  0  0  0  0  0  0  0  0  0  0
    6.0000   -2.5981    0.0000 O   0  0  0  0  0  0  0  0  0  0  0  0
    6.0000   -5.1962    0.0000 O   0  0  0  0  0  0  0  0  0  0  0  0
    3.0000   -7.7942    0.0000 C   0  0  0  0  0  0  0  0  0  0  0  0
    1.5000   -7.7942    0.0000 O   0  0  0  0  0  0  0  0  0  0  0  0
    3.7500   -9.0933    0.0000 N   0  0  0  0  0  0  0  0  0  0  0  0
    5.2418   -9.2501    0.0000 C   0  0  0  0  0  0  0  0  0  0  0  0
    5.5537  -10.7173    0.0000 C   0  0  0  0  0  0  0  0  0  0  0  0
    4.2546  -11.4673    0.0000 C   0  0  0  0  0  0  0  0  0  0  0  0
    3.1399  -10.4636    0.0000 C   0  0  0  0  0  0  0  0  0  0  0  0
    1.6727  -10.7755    0.0000 C   0  0  0  0  0  0  0  0  0  0  0  0
    0.6690   -9.6607    0.0000 O   0  0  0  0  0  0  0  0  0  0  0  0
    1.2091  -12.2020    0.0000 O   0  0  0  0  0  0  0  0  0  0  0  0
  1  2  1  0
  2  3  1  0
  3  4  1  0
  4  5  1  0
  6  5  1  1
  6  7  1  0
  7  8  1  0
  8  9  1  1
  9 10  1  0
 10 11  1  0
 11 12  2  0
 12 13  1  0
 13 14  2  0
 14 15  1  0
 15 16  2  0
  8 17  1  0
 17 18  2  0
 17 19  1  0
  6 20  1  0
 20 21  2  0
 20 22  1  0
 22 23  1  0
 23 24  1  0
 24 25  1  0
 25 26  1  0
 26 27  1  1
 27 28  2  0
 27 29  1  0
 16 11  1  0
 26 22  1  0
M  END
$$$$
22956
     RDKit          2D

 10  9  0  0  0  0  0  0  0  0999 V2000
   -1.2990    0.7500    0.0000 N   0  0  0  0  0  0  0  0  0  0  0  0
    0.0000    0.0000    0.0000 C   0  0  0  0  0  0  0  0  0  0  0  0
    1.2990    0.7500    0.0000 C   0  0  0  0  0  0  0  0  0  0  0  0
    2.5981   -0.0000    0.0000 N   0  0  0  0  0  0  0  0  0  0  0  0
    3.8971    0.7500    0.0000 C   0  0  0  0  0  0  0  0  0  0  0  0
    5.1962   -0.0000    0.0000 C   0  0  0  0  0  0  0  0  0  0  0  0
    6.4952    0.7500    0.0000 N   0  0  0  0  0  0  0  0  0  0  0  0
    7.7942   -0.0000    0.0000 C   0  0  0  0  0  0  0  0  0  0  0  0
    9.0933    0.7500    0.0000 C   0  0  0  0  0  0  0  0  0  0  0  0
   10.3923   -0.0000    0.0000 N   0  0  0  0  0  0  0  0  0  0  0  0
  1  2  1  0
  2  3  1  0
  3  4  1  0
  4  5  1  0
  5  6  1  0
  6  7  1  0
  7  8  1  0
  8  9  1  0
  9 10  1  0
M  END
$$$$
21036
     RDKit          2D

  4  3  0  0  0  0  0  0  0  0999 V2000
   -1.2990    0.7500    0.0000 N   0  0  0  0  0  0  0  0  0  0  0  0
    0.0000    0.0000    0.0000 C   0  0  0  0  0  0  0  0  0  0  0  0
    1.2990    0.7500    0.0000 C   0  0  0  0  0  0  0  0  0  0  0  0
    2.5981   -0.0000    0.0000 S   0  0  0  0  0  0  0  0  0  0  0  0
  1  2  1  0
  2  3  1  0
  3  4  1  0
M  END
$$$$
1355854
     RDKit          2D

 14 12  0  0  0  0  0  0  0  0999 V2000
   -1.2990    0.7500    0.0000 N   0  0  0  0  0  0  0  0  0  0  0  0
    0.0000    0.0000    0.0000 C   0  0  0  0  0  0  0  0  0  0  0  0
    1.2990    0.7500    0.0000 C   0  0  0  0  0  0  0  0  0  0  0  0
    2.5981   -0.0000    0.0000 S   0  0  0  0  0  0  0  0  0  0  0  0
   -0.0000    1.7500    0.0000 O   0  0  0  0  0  0  0  0  0  0  0  0
    0.0000    3.2500    0.0000 C   0  0  0  0  0  0  0  0  0  0  0  0
    1.2990    4.0000    0.0000 C   0  0  0  0  0  0  0  0  0  0  0  0
    1.2990    5.5000    0.0000 O   0  0  0  0  0  0  0  0  0  0  0  0
    2.5981    3.2500    0.0000 C   0  0  0  0  0  0  0  0  0  0  0  0
    2.5981    1.7500    0.0000 O   0  0  0  0  0  0  0  0  0  0  0  0
    3.8971    4.0000    0.0000 O   0  0  0  0  0  0  0  0  0  0  0  0
   -1.2990    4.0000    0.0000 C   0  0  0  0  0  0  0  0  0  0  0  0
   -1.2990    5.5000    0.0000 O   0  0  0  0  0  0  0  0  0  0  0  0
   -2.5981    3.2500    0.0000 O   0  0  0  0  0  0  0  0  0  0  0  0
  1  2  1  0
  2  3  1  0
  3  4  1  0
  5  6  1  0
  6  7  1  0
  7  8  1  0
  7  9  1  0
  9 10  2  0
  9 11  1  0
  6 12  1  0
 12 13  2  0
 12 14  1  0
M  END
$$$$
73547
     RDKit          2D

 11 11  0  0  0  0  0  0  0  0999 V2000
    3.7500   -1.2990    0.0000 N   0  0  0  0  0  0  0  0  0  0  0  0
    3.0000    0.0000    0.0000 C   0  0  0  0  0  0  0  0  0  0  0  0
    1.5000    0.0000    0.0000 C   0  0  0  0  0  0  0  0  0  0  0  0
    0.7500   -1.2990    0.0000 C   0  0  0  0  0  0  0  0  0  0  0  0
   -0.7500   -1.2990    0.0000 C   0  0  0  0  0  0  0  0  0  0  0  0
   -1.5000    0.0000    0.0000 C   0  0  0  0  0  0  0  0  0  0  0  0
   -0.7500    1.2990    0.0000 C   0  0  0  0  0  0  0  0  0  0  0  0
    0.7500    1.2990    0.0000 C   0  0  0  0  0  0  0  0  0  0  0  0
   -3.0000    0.0000    0.0000 C   0  0  0  0  0  0  0  0  0  0  0  0
   -3.7500   -1.2990    0.0000 O   0  0  0  0  0  0  0  0  0  0  0  0
   -3.7500    1.2990    0.0000 O   0  0  0  0  0  0  0  0  0  0  0  0
  1  2  1  0
  3  2  1  6
  3  4  1  0
  4  5  1  0
  5  6  1  0
  6  7  1  0
  7  8  1  0
  6  9  1  1
  9 10  2  0
  9 11  1  0
  8  3  1  0
M  END
$$$$
312304
     RDKit          2D

 42 45  0  0  0  0  0  0  0  0999 V2000
    3.7500   -1.2990    0.0000 N   0  0  0  0  0  0  0  0  0  0  0  0
    3.0000    0.0000    0.0000 C   0  0  0  0  0  0  0  0  0  0  0  0
    1.5000    0.0000    0.0000 C   0  0  0  0  0  0  0  0  0  0  0  0
    0.7500   -1.2990    0.0000 O   0  0  0  0  0  0  0  0  0  0  0  0
   -0.7500   -1.2990    0.0000 C   0  0  0  0  0  0  0  0  0  0  0  0
   -1.5000   -2.5981    0.0000 O   0  0  0  0  0  0  0  0  0  0  0  0
   -0.7500   -3.8971    0.0000 C   0  0  0  0  0  0  0  0  0  0  0  0
    0.7418   -4.0539    0.0000 C   0  0  0  0  0  0  0  0  0  0  0  0
    1.7455   -2.9392    0.0000 O   0  0  0  0  0  0  0  0  0  0  0  0
    1.0537   -5.5211    0.0000 C   0  0  0  0  0  0  0  0  0  0  0  0
    2.4240   -6.1312    0.0000 O   0  0  0  0  0  0  0  0  0  0  0  0
    2.5808   -7.6230    0.0000 C   0  0  0  0  0  0  0  0  0  0  0  0
    1.3672   -8.5047    0.0000 C   0  0  0  0  0  0  0  0  0  0  0  0
   -0.0031   -7.8946    0.0000 O   0  0  0  0  0  0  0  0  0  0  0  0
    1.5240   -9.9965    0.0000 C   0  0  0  0  0  0  0  0  0  0  0  0
    0.3105  -10.8782    0.0000 N   0  0  0  0  0  0  0  0  0  0  0  0
    2.8943  -10.6066    0.0000 C   0  0  0  0  0  0  0  0  0  0  0  0
    4.1079   -9.7249    0.0000 C   0  0  0  0  0  0  0  0  0  0  0  0
    5.4782  -10.3350    0.0000 N   0  0  0  0  0  0  0  0  0  0  0  0
    3.9511   -8.2331    0.0000 C   0  0  0  0  0  0  0  0  0  0  0  0
    5.1646   -7.3514    0.0000 O   0  0  0  0  0  0  0  0  0  0  0  0
    6.5349   -7.9615    0.0000 C   0  0  0  0  0  0  0  0  0  0  0  0
    6.6917   -9.4533    0.0000 O   0  0  0  0  0  0  0  0  0  0  0  0
    8.0620  -10.0634    0.0000 C   0  0  0  0  0  0  0  0  0  0  0  0
    8.2188  -11.5552    0.0000 C   0  0  0  0  0  0  0  0  0  0  0  0
    9.5891  -12.1653    0.0000 N   0  0  0  0  0  0  0  0  0  0  0  0
    9.2756   -9.1818    0.0000 C   0  0  0  0  0  0  0  0  0  0  0  0
   10.6459   -9.7919    0.0000 O   0  0  0  0  0  0  0  0  0  0  0  0
    9.1188   -7.6900    0.0000 C   0  0  0  0  0  0  0  0  0  0  0  0
   10.3323   -6.8083    0.0000 O   0  0  0  0  0  0  0  0  0  0  0  0
    7.7484   -7.0799    0.0000 C   0  0  0  0  0  0  0  0  0  0  0  0
    7.5917   -5.5881    0.0000 N   0  0  0  0  0  0  0  0  0  0  0  0
   -0.2454   -6.2711    0.0000 O   0  0  0  0  0  0  0  0  0  0  0  0
   -1.3601   -5.2674    0.0000 C   0  0  0  0  0  0  0  0  0  0  0  0
   -2.8273   -5.5793    0.0000 C   0  0  0  0  0  0  0  0  0  0  0  0
   -3.2909   -7.0059    0.0000 O   0  0  0  0  0  0  0  0  0  0  0  0
   -1.5000    0.0000    0.0000 C   0  0  0  0  0  0  0  0  0  0  0  0
   -3.0000    0.0000    0.0000 N   0  0  0  0  0  0  0  0  0  0  0  0
   -0.7500    1.2990    0.0000 C   0  0  0  0  0  0  0  0  0  0  0  0
   -1.5000    2.5981    0.0000 O   0  0  0  0  0  0  0  0  0  0  0  0
    0.7500    1.2990    0.0000 C   0  0  0  0  0  0  0  0  0  0  0  0
    1.5000    2.5981    0.0000 O   0  0  0  0  0  0  0  0  0  0  0  0
  1  2  1  0
  3  2  1  6
  3  4  1  0
  4  5  1  0
  5  6  1  6
  7  6  1  1
  7  8  1  0
  8  9  1  1
  8 10  1  0
 10 11  1  6
 12 11  1  1
 12 13  1  0
 13 14  1  6
 13 15  1  0
 15 16  1  1
 15 17  1  0
 17 18  1  0
 18 19  1  1
 18 20  1  0
 20 21  1  6
 22 21  1  6
 22 23  1  0
 23 24  1  0
 24 25  1  1
 25 26  1  0
 24 27  1  0
 27 28  1  6
 27 29  1  0
 29 30  1  1
 29 31  1  0
 31 32  1  6
 10 33  1  0
 33 34  1  0
 34 35  1  6
 35 36  1  0
  5 37  1  0
 37 38  1  6
 37 39  1  0
 39 40  1  1
 39 41  1  0
 41 42  1  6
 41  3  1  0
 34  7  1  0
 20 12  1  0
 31 22  1  0
M  END
$$$$
711939
     RDKit          2D

 47 49  0  0  0  0  0  0  0  0999 V2000
    3.7500   -1.2990    0.0000 N   0  0  0  0  0  0  0  0  0  0  0  0
    3.0000    0.0000    0.0000 C   0  0  0  0  0  0  0  0  0  0  0  0
    1.5000    0.0000    0.0000 C   0  0  0  0  0  0  0  0  0  0  0  0
    0.7500   -1.2990    0.0000 O   0  0  0  0  0  0  0  0  0  0  0  0
   -0.7500   -1.2990    0.0000 C   0  0  0  0  0  0  0  0  0  0  0  0
   -1.5000   -2.5981    0.0000 O   0  0  0  0  0  0  0  0  0  0  0  0
   -0.7500   -3.8971    0.0000 C   0  0  0  0  0  0  0  0  0  0  0  0
    0.7418   -4.0539    0.0000 C   0  0  0  0  0  0  0  0  0  0  0  0
    1.7455   -2.9392    0.0000 O   0  0  0  0  0  0  0  0  0  0  0  0
    1.0537   -5.5211    0.0000 C   0  0  0  0  0  0  0  0  0  0  0  0
    2.4240   -6.1312    0.0000 O   0  0  0  0  0  0  0  0  0  0  0  0
    2.5808   -7.6230    0.0000 C   0  0  0  0  0  0  0  0  0  0  0  0
    1.3672   -8.5047    0.0000 C   0  0  0  0  0  0  0  0  0  0  0  0
   -0.0031   -7.8946    0.0000 O   0  0  0  0  0  0  0  0  0  0  0  0
    1.5240   -9.9965    0.0000 C   0  0  0  0  0  0  0  0  0  0  0  0
    0.3105  -10.8782    0.0000 N   0  0  0  0  0  0  0  0  0  0  0  0
    2.8943  -10.6066    0.0000 C   0  0  0  0  0  0  0  0  0  0  0  0
    4.1079   -9.7249    0.0000 C   0  0  0  0  0  0  0  0  0  0  0  0
    5.4782  -10.3350    0.0000 N   0  0  0  0  0  0  0  0  0  0  0  0
    3.9511   -8.2331    0.0000 C   0  0  0  0  0  0  0  0  0  0  0  0
    5.1646   -7.3514    0.0000 O   0  0  0  0  0  0  0  0  0  0  0  0
    6.5349   -7.9615    0.0000 C   0  0  0  0  0  0  0  0  0  0  0  0
    6.6917   -9.4533    0.0000 O   0  0  0  0  0  0  0  0  0  0  0  0
    8.0620  -10.0634    0.0000 C   0  0  0  0  0  0  0  0  0  0  0  0
    8.2188  -11.5552    0.0000 C   0  0  0  0  0  0  0  0  0  0  0  0
    9.5891  -12.1653    0.0000 N   0  0  0  0  0  0  0  0  0  0  0  0
    9.2756   -9.1818    0.0000 C   0  0  0  0  0  0  0  0  0  0  0  0
   10.6459   -9.7919    0.0000 O   0  0  0  0  0  0  0  0  0  0  0  0
    9.1188   -7.6900    0.0000 C   0  0  0  0  0  0  0  0  0  0  0  0
   10.3323   -6.8083    0.0000 O   0  0  0  0  0  0  0  0  0  0  0  0
    7.7484   -7.0799    0.0000 C   0  0  0  0  0  0  0  0  0  0  0  0
    7.5917   -5.5881    0.0000 N   0  0  0  0  0  0  0  0  0  0  0  0
   -0.2454   -6.2711    0.0000 O   0  0  0  0  0  0  0  0  0  0  0  0
   -1.3601   -5.2674    0.0000 C   0  0  0  0  0  0  0  0  0  0  0  0
   -2.8273   -5.5793    0.0000 C   0  0  0  0  0  0  0  0  0  0  0  0
   -3.2909   -7.0059    0.0000 O   0  0  0  0  0  0  0  0  0  0  0  0
   -1.5000    0.0000    0.0000 C   0  0  0  0  0  0  0  0  0  0  0  0
   -3.0000    0.0000    0.0000 N   0  0  0  0  0  0  0  0  0  0  0  0
   -0.7500    1.2990    0.0000 C   0  0  0  0  0  0  0  0  0  0  0  0
   -1.5000    2.5981    0.0000 O   0  0  0  0  0  0  0  0  0  0  0  0
    0.7500    1.2990    0.0000 C   0  0  0  0  0  0  0  0  0  0  0  0
    1.5000    2.5981    0.0000 O   0  0  0  0  0  0  0  0  0  0  0  0
   11.6459    0.0000    0.0000 O   0  0  0  0  0  0  0  0  0  0  0  0
   12.9449    0.7500    0.0000 S   0  0  0  0  0  0  0  0  0  0  0  0
   13.6949   -0.5490    0.0000 O   0  0  0  0  0  0  0  0  0  0  0  0
   12.1949    2.0490    0.0000 O   0  0  0  0  0  0  0  0  0  0  0  0
   14.2440    1.5000    0.0000 O   0  0  0  0  0  0  0  0  0  0  0  0
  1  2  1  0
  3  2  1  6
  3  4  1  0
  4  5  1  0
  5  6  1  6
  7  6  1  1
  7  8  1  0
  8  9  1  1
  8 10  1  0
 10 11  1  6
 12 11  1  1
 12 13  1  0
 13 14  1  6
 13 15  1  0
 15 16  1  1
 15 17  1  0
 17 18  1  0
 18 19  1  1
 18 20  1  0
 20 21  1  6
 22 21  1  6
 22 23  1  0
 23 24  1  0
 24 25  1  1
 25 26  1  0
 24 27  1  0
 27 28  1  6
 27 29  1  0
 29 30  1  1
 29 31  1  0
 31 32  1  6
 10 33  1  0
 33 34  1  0
 34 35  1  6
 35 36  1  0
  5 37  1  0
 37 38  1  6
 37 39  1  0
 39 40  1  1
 39 41  1  0
 41 42  1  6
 43 44  1  0
 44 45  2  0
 44 46  2  0
 44 47  1  0
 41  3  1  0
 34  7  1  0
 20 12  1  0
 31 22  1  0
M  END
$$$$
325236
     RDKit          2D

 42 45  0  0  0  0  0  0  0  0999 V2000
    3.7500   -1.2990    0.0000 N   0  0  0  0  0  0  0  0  0  0  0  0
    3.0000    0.0000    0.0000 C   0  0  0  0  0  0  0  0  0  0  0  0
    1.5000    0.0000    0.0000 C   0  0  0  0  0  0  0  0  0  0  0  0
    0.7500   -1.2990    0.0000 O   0  0  0  0  0  0  0  0  0  0  0  0
   -0.7500   -1.2990    0.0000 C   0  0  0  0  0  0  0  0  0  0  0  0
   -1.5000   -2.5981    0.0000 O   0  0  0  0  0  0  0  0  0  0  0  0
   -0.7500   -3.8971    0.0000 C   0  0  0  0  0  0  0  0  0  0  0  0
    0.7418   -4.0539    0.0000 C   0  0  0  0  0  0  0  0  0  0  0  0
    1.7455   -2.9392    0.0000 O   0  0  0  0  0  0  0  0  0  0  0  0
    1.0537   -5.5211    0.0000 C   0  0  0  0  0  0  0  0  0  0  0  0
    2.4240   -6.1312    0.0000 O   0  0  0  0  0  0  0  0  0  0  0  0
    2.5808   -7.6230    0.0000 C   0  0  0  0  0  0  0  0  0  0  0  0
    1.3672   -8.5047    0.0000 C   0  0  0  0  0  0  0  0  0  0  0  0
   -0.0031   -7.8946    0.0000 O   0  0  0  0  0  0  0  0  0  0  0  0
    1.5240   -9.9965    0.0000 C   0  0  0  0  0  0  0  0  0  0  0  0
    0.3105  -10.8782    0.0000 N   0  0  0  0  0  0  0  0  0  0  0  0
    2.8943  -10.6066    0.0000 C   0  0  0  0  0  0  0  0  0  0  0  0
    4.1079   -9.7249    0.0000 C   0  0  0  0  0  0  0  0  0  0  0  0
    5.4782  -10.3350    0.0000 N   0  0  0  0  0  0  0  0  0  0  0  0
    3.9511   -8.2331    0.0000 C   0  0  0  0  0  0  0  0  0  0  0  0
    5.1646   -7.3514    0.0000 O   0  0  0  0  0  0  0  0  0  0  0  0
    6.5349   -7.9615    0.0000 C   0  0  0  0  0  0  0  0  0  0  0  0
    6.6917   -9.4533    0.0000 O   0  0  0  0  0  0  0  0  0  0  0  0
    8.0620  -10.0634    0.0000 C   0  0  0  0  0  0  0  0  0  0  0  0
    8.2188  -11.5552    0.0000 C   0  0  0  0  0  0  0  0  0  0  0  0
    9.5891  -12.1653    0.0000 O   0  0  0  0  0  0  0  0  0  0  0  0
    9.2756   -9.1818    0.0000 C   0  0  0  0  0  0  0  0  0  0  0  0
   10.6459   -9.7919    0.0000 O   0  0  0  0  0  0  0  0  0  0  0  0
    9.1188   -7.6900    0.0000 C   0  0  0  0  0  0  0  0  0  0  0  0
   10.3323   -6.8083    0.0000 O   0  0  0  0  0  0  0  0  0  0  0  0
    7.7484   -7.0799    0.0000 C   0  0  0  0  0  0  0  0  0  0  0  0
    7.5917   -5.5881    0.0000 N   0  0  0  0  0  0  0  0  0  0  0  0
   -0.2454   -6.2711    0.0000 O   0  0  0  0  0  0  0  0  0  0  0  0
   -1.3601   -5.2674    0.0000 C   0  0  0  0  0  0  0  0  0  0  0  0
   -2.8273   -5.5793    0.0000 C   0  0  0  0  0  0  0  0  0  0  0  0
   -3.2909   -7.0059    0.0000 O   0  0  0  0  0  0  0  0  0  0  0  0
   -1.5000    0.0000    0.0000 C   0  0  0  0  0  0  0  0  0  0  0  0
   -3.0000    0.0000    0.0000 N   0  0  0  0  0  0  0  0  0  0  0  0
   -0.7500    1.2990    0.0000 C   0  0  0  0  0  0  0  0  0  0  0  0
   -1.5000    2.5981    0.0000 O   0  0  0  0  0  0  0  0  0  0  0  0
    0.7500    1.2990    0.0000 C   0  0  0  0  0  0  0  0  0  0  0  0
    1.5000    2.5981    0.0000 O   0  0  0  0  0  0  0  0  0  0  0  0
  1  2  1  0
  3  2  1  6
  3  4  1  0
  4  5  1  0
  5  6  1  6
  7  6  1  1
  7  8  1  0
  8  9  1  1
  8 10  1  0
 10 11  1  6
 12 11  1  1
 12 13  1  0
 13 14  1  6
 13 15  1  0
 15 16  1  1
 15 17  1  0
 17 18  1  0
 18 19  1  1
 18 20  1  0
 20 21  1  6
 22 21  1  6
 22 23  1  0
 23 24  1  0
 24 25  1  1
 25 26  1  0
 24 27  1  0
 27 28  1  6
 27 29  1  0
 29 30  1  1
 29 31  1  0
 31 32  1  6
 10 33  1  0
 33 34  1  0
 34 35  1  6
 35 36  1  0
  5 37  1  0
 37 38  1  6
 37 39  1  0
 39 40  1  1
 39 41  1  0
 41 42  1  6
 41  3  1  0
 34  7  1  0
 20 12  1  0
 31 22  1  0
M  END
$$$$
1445828
     RDKit          2D

 47 49  0  0  0  0  0  0  0  0999 V2000
    3.7500   -1.2990    0.0000 N   0  0  0  0  0  0  0  0  0  0  0  0
    3.0000    0.0000    0.0000 C   0  0  0  0  0  0  0  0  0  0  0  0
    1.5000    0.0000    0.0000 C   0  0  0  0  0  0  0  0  0  0  0  0
    0.7500   -1.2990    0.0000 O   0  0  0  0  0  0  0  0  0  0  0  0
   -0.7500   -1.2990    0.0000 C   0  0  0  0  0  0  0  0  0  0  0  0
   -1.5000   -2.5981    0.0000 O   0  0  0  0  0  0  0  0  0  0  0  0
   -0.7500   -3.8971    0.0000 C   0  0  0  0  0  0  0  0  0  0  0  0
    0.7418   -4.0539    0.0000 C   0  0  0  0  0  0  0  0  0  0  0  0
    1.7455   -2.9392    0.0000 O   0  0  0  0  0  0  0  0  0  0  0  0
    1.0537   -5.5211    0.0000 C   0  0  0  0  0  0  0  0  0  0  0  0
    2.4240   -6.1312    0.0000 O   0  0  0  0  0  0  0  0  0  0  0  0
    2.5808   -7.6230    0.0000 C   0  0  0  0  0  0  0  0  0  0  0  0
    1.3672   -8.5047    0.0000 C   0  0  0  0  0  0  0  0  0  0  0  0
   -0.0031   -7.8946    0.0000 O   0  0  0  0  0  0  0  0  0  0  0  0
    1.5240   -9.9965    0.0000 C   0  0  0  0  0  0  0  0  0  0  0  0
    0.3105  -10.8782    0.0000 N   0  0  0  0  0  0  0  0  0  0  0  0
    2.8943  -10.6066    0.0000 C   0  0  0  0  0  0  0  0  0  0  0  0
    4.1079   -9.7249    0.0000 C   0  0  0  0  0  0  0  0  0  0  0  0
    5.4782  -10.3350    0.0000 N   0  0  0  0  0  0  0  0  0  0  0  0
    3.9511   -8.2331    0.0000 C   0  0  0  0  0  0  0  0  0  0  0  0
    5.1646   -7.3514    0.0000 O   0  0  0  0  0  0  0  0  0  0  0  0
    6.5349   -7.9615    0.0000 C   0  0  0  0  0  0  0  0  0  0  0  0
    6.6917   -9.4533    0.0000 O   0  0  0  0  0  0  0  0  0  0  0  0
    8.0620  -10.0634    0.0000 C   0  0  0  0  0  0  0  0  0  0  0  0
    8.2188  -11.5552    0.0000 C   0  0  0  0  0  0  0  0  0  0  0  0
    9.5891  -12.1653    0.0000 O   0  0  0  0  0  0  0  0  0  0  0  0
    9.2756   -9.1818    0.0000 C   0  0  0  0  0  0  0  0  0  0  0  0
   10.6459   -9.7919    0.0000 O   0  0  0  0  0  0  0  0  0  0  0  0
    9.1188   -7.6900    0.0000 C   0  0  0  0  0  0  0  0  0  0  0  0
   10.3323   -6.8083    0.0000 O   0  0  0  0  0  0  0  0  0  0  0  0
    7.7484   -7.0799    0.0000 C   0  0  0  0  0  0  0  0  0  0  0  0
    7.5917   -5.5881    0.0000 N   0  0  0  0  0  0  0  0  0  0  0  0
   -0.2454   -6.2711    0.0000 O   0  0  0  0  0  0  0  0  0  0  0  0
   -1.3601   -5.2674    0.0000 C   0  0  0  0  0  0  0  0  0  0  0  0
   -2.8273   -5.5793    0.0000 C   0  0  0  0  0  0  0  0  0  0  0  0
   -3.2909   -7.0059    0.0000 O   0  0  0  0  0  0  0  0  0  0  0  0
   -1.5000    0.0000    0.0000 C   0  0  0  0  0  0  0  0  0  0  0  0
   -3.0000    0.0000    0.0000 N   0  0  0  0  0  0  0  0  0  0  0  0
   -0.7500    1.2990    0.0000 C   0  0  0  0  0  0  0  0  0  0  0  0
   -1.5000    2.5981    0.0000 O   0  0  0  0  0  0  0  0  0  0  0  0
    0.7500    1.2990    0.0000 C   0  0  0  0  0  0  0  0  0  0  0  0
    1.5000    2.5981    0.0000 O   0  0  0  0  0  0  0  0  0  0  0  0
   11.6459    0.0000    0.0000 O   0  0  0  0  0  0  0  0  0  0  0  0
   12.9449    0.7500    0.0000 S   0  0  0  0  0  0  0  0  0  0  0  0
   13.6949   -0.5490    0.0000 O   0  0  0  0  0  0  0  0  0  0  0  0
   12.1949    2.0490    0.0000 O   0  0  0  0  0  0  0  0  0  0  0  0
   14.2440    1.5000    0.0000 O   0  0  0  0  0  0  0  0  0  0  0  0
  1  2  1  0
  3  2  1  6
  3  4  1  0
  4  5  1  0
  5  6  1  6
  7  6  1  1
  7  8  1  0
  8  9  1  1
  8 10  1  0
 10 11  1  6
 12 11  1  1
 12 13  1  0
 13 14  1  6
 13 15  1  0
 15 16  1  1
 15 17  1  0
 17 18  1  0
 18 19  1  1
 18 20  1  0
 20 21  1  6
 22 21  1  6
 22 23  1  0
 23 24  1  0
 24 25  1  1
 25 26  1  0
 24 27  1  0
 27 28  1  6
 27 29  1  0
 29 30  1  1
 29 31  1  0
 31 32  1  6
 10 33  1  0
 33 34  1  0
 34 35  1  6
 35 36  1  0
  5 37  1  0
 37 38  1  6
 37 39  1  0
 39 40  1  1
 39 41  1  0
 41 42  1  6
 43 44  1  0
 44 45  2  0
 44 46  2  0
 44 47  1  0
 41  3  1  0
 34  7  1  0
 20 12  1  0
 31 22  1  0
M  END
$$$$
325239
     RDKit          2D

 33 35  0  0  0  0  0  0  0  0999 V2000
    3.7500   -1.2990    0.0000 N   0  0  0  0  0  0  0  0  0  0  0  0
    3.0000    0.0000    0.0000 C   0  0  0  0  0  0  0  0  0  0  0  0
    1.5000    0.0000    0.0000 C   0  0  0  0  0  0  0  0  0  0  0  0
    0.7500   -1.2990    0.0000 O   0  0  0  0  0  0  0  0  0  0  0  0
   -0.7500   -1.2990    0.0000 C   0  0  0  0  0  0  0  0  0  0  0  0
   -1.5000   -2.5981    0.0000 O   0  0  0  0  0  0  0  0  0  0  0  0
   -0.7500   -3.8971    0.0000 C   0  0  0  0  0  0  0  0  0  0  0  0
   -1.5000   -5.1962    0.0000 C   0  0  0  0  0  0  0  0  0  0  0  0
   -3.0000   -5.1962    0.0000 N   0  0  0  0  0  0  0  0  0  0  0  0
   -0.7500   -6.4952    0.0000 C   0  0  0  0  0  0  0  0  0  0  0  0
    0.7500   -6.4952    0.0000 C   0  0  0  0  0  0  0  0  0  0  0  0
    1.5000   -7.7942    0.0000 N   0  0  0  0  0  0  0  0  0  0  0  0
    1.5000   -5.1962    0.0000 C   0  0  0  0  0  0  0  0  0  0  0  0
    3.0000   -5.1962    0.0000 O   0  0  0  0  0  0  0  0  0  0  0  0
    3.7500   -6.4952    0.0000 C   0  0  0  0  0  0  0  0  0  0  0  0
    3.0000   -7.7942    0.0000 O   0  0  0  0  0  0  0  0  0  0  0  0
    3.7500   -9.0933    0.0000 C   0  0  0  0  0  0  0  0  0  0  0  0
    3.0000  -10.3923    0.0000 C   0  0  0  0  0  0  0  0  0  0  0  0
    1.5000  -10.3923    0.0000 O   0  0  0  0  0  0  0  0  0  0  0  0
    5.2500   -9.0933    0.0000 C   0  0  0  0  0  0  0  0  0  0  0  0
    6.0000  -10.3923    0.0000 O   0  0  0  0  0  0  0  0  0  0  0  0
    6.0000   -7.7942    0.0000 C   0  0  0  0  0  0  0  0  0  0  0  0
    7.5000   -7.7942    0.0000 N   0  0  0  0  0  0  0  0  0  0  0  0
    5.2500   -6.4952    0.0000 C   0  0  0  0  0  0  0  0  0  0  0  0
    6.0000   -5.1962    0.0000 O   0  0  0  0  0  0  0  0  0  0  0  0
    0.7500   -3.8971    0.0000 C   0  0  0  0  0  0  0  0  0  0  0  0
    1.5000   -2.5981    0.0000 O   0  0  0  0  0  0  0  0  0  0  0  0
   -1.5000    0.0000    0.0000 C   0  0  0  0  0  0  0  0  0  0  0  0
   -3.0000    0.0000    0.0000 O   0  0  0  0  0  0  0  0  0  0  0  0
   -0.7500    1.2990    0.0000 C   0  0  0  0  0  0  0  0  0  0  0  0
   -1.5000    2.5981    0.0000 O   0  0  0  0  0  0  0  0  0  0  0  0
    0.7500    1.2990    0.0000 C   0  0  0  0  0  0  0  0  0  0  0  0
    1.5000    2.5981    0.0000 O   0  0  0  0  0  0  0  0  0  0  0  0
  1  2  1  0
  3  2  1  1
  3  4  1  0
  4  5  1  0
  5  6  1  6
  7  6  1  1
  7  8  1  0
  8  9  1  6
  8 10  1  0
 10 11  1  0
 11 12  1  6
 11 13  1  0
 13 14  1  1
 15 14  1  6
 15 16  1  0
 16 17  1  0
 17 18  1  1
 18 19  1  0
 17 20  1  0
 20 21  1  6
 20 22  1  0
 22 23  1  1
 22 24  1  0
 24 25  1  6
 13 26  1  0
 26 27  1  6
  5 28  1  0
 28 29  1  6
 28 30  1  0
 30 31  1  1
 30 32  1  0
 32 33  1  6
 32  3  1  0
 26  7  1  0
 24 15  1  0
M  END
$$$$
378124
     RDKit          2D

 38 39  0  0  0  0  0  0  0  0999 V2000
    3.7500   -1.2990    0.0000 N   0  0  0  0  0  0  0  0  0  0  0  0
    3.0000    0.0000    0.0000 C   0  0  0  0  0  0  0  0  0  0  0  0
    1.5000    0.0000    0.0000 C   0  0  0  0  0  0  0  0  0  0  0  0
    0.7500   -1.2990    0.0000 O   0  0  0  0  0  0  0  0  0  0  0  0
   -0.7500   -1.2990    0.0000 C   0  0  0  0  0  0  0  0  0  0  0  0
   -1.5000   -2.5981    0.0000 O   0  0  0  0  0  0  0  0  0  0  0  0
   -0.7500   -3.8971    0.0000 C   0  0  0  0  0  0  0  0  0  0  0  0
   -1.5000   -5.1962    0.0000 C   0  0  0  0  0  0  0  0  0  0  0  0
   -3.0000   -5.1962    0.0000 N   0  0  0  0  0  0  0  0  0  0  0  0
   -0.7500   -6.4952    0.0000 C   0  0  0  0  0  0  0  0  0  0  0  0
    0.7500   -6.4952    0.0000 C   0  0  0  0  0  0  0  0  0  0  0  0
    1.5000   -7.7942    0.0000 N   0  0  0  0  0  0  0  0  0  0  0  0
    1.5000   -5.1962    0.0000 C   0  0  0  0  0  0  0  0  0  0  0  0
    3.0000   -5.1962    0.0000 O   0  0  0  0  0  0  0  0  0  0  0  0
    3.7500   -6.4952    0.0000 C   0  0  0  0  0  0  0  0  0  0  0  0
    3.0000   -7.7942    0.0000 O   0  0  0  0  0  0  0  0  0  0  0  0
    3.7500   -9.0933    0.0000 C   0  0  0  0  0  0  0  0  0  0  0  0
    3.0000  -10.3923    0.0000 C   0  0  0  0  0  0  0  0  0  0  0  0
    1.5000  -10.3923    0.0000 O   0  0  0  0  0  0  0  0  0  0  0  0
    5.2500   -9.0933    0.0000 C   0  0  0  0  0  0  0  0  0  0  0  0
    6.0000  -10.3923    0.0000 O   0  0  0  0  0  0  0  0  0  0  0  0
    6.0000   -7.7942    0.0000 C   0  0  0  0  0  0  0  0  0  0  0  0
    7.5000   -7.7942    0.0000 N   0  0  0  0  0  0  0  0  0  0  0  0
    5.2500   -6.4952    0.0000 C   0  0  0  0  0  0  0  0  0  0  0  0
    6.0000   -5.1962    0.0000 O   0  0  0  0  0  0  0  0  0  0  0  0
    0.7500   -3.8971    0.0000 C   0  0  0  0  0  0  0  0  0  0  0  0
    1.5000   -2.5981    0.0000 O   0  0  0  0  0  0  0  0  0  0  0  0
   -1.5000    0.0000    0.0000 C   0  0  0  0  0  0  0  0  0  0  0  0
   -3.0000    0.0000    0.0000 O   0  0  0  0  0  0  0  0  0  0  0  0
   -0.7500    1.2990    0.0000 C   0  0  0  0  0  0  0  0  0  0  0  0
   -1.5000    2.5981    0.0000 O   0  0  0  0  0  0  0  0  0  0  0  0
    0.7500    1.2990    0.0000 C   0  0  0  0  0  0  0  0  0  0  0  0
    1.5000    2.5981    0.0000 O   0  0  0  0  0  0  0  0  0  0  0  0
    8.5000    0.0000    0.0000 O   0  0  0  0  0  0  0  0  0  0  0  0
    9.7990    0.7500    0.0000 S   0  0  0  0  0  0  0  0  0  0  0  0
   10.5490   -0.5490    0.0000 O   0  0  0  0  0  0  0  0  0  0  0  0
    9.0490    2.0490    0.0000 O   0  0  0  0  0  0  0  0  0  0  0  0
   11.0981    1.5000    0.0000 O   0  0  0  0  0  0  0  0  0  0  0  0
  1  2  1  0
  3  2  1  1
  3  4  1  0
  4  5  1  0
  5  6  1  6
  7  6  1  1
  7  8  1  0
  8  9  1  6
  8 10  1  0
 10 11  1  0
 11 12  1  6
 11 13  1  0
 13 14  1  1
 15 14  1  6
 15 16  1  0
 16 17  1  0
 17 18  1  1
 18 19  1  0
 17 20  1  0
 20 21  1  6
 20 22  1  0
 22 23  1  1
 22 24  1  0
 24 25  1  6
 13 26  1  0
 26 27  1  6
  5 28  1  0
 28 29  1  6
 28 30  1  0
 30 31  1  1
 30 32  1  0
 32 33  1  6
 34 35  1  0
 35 36  2  0
 35 37  2  0
 35 38  1  0
 32  3  1  0
 26  7  1  0
 24 15  1  0
M  END
$$$$
4941
     RDKit          2D

 10 10  0  0  0  0  0  0  0  0999 V2000
    5.2500   -1.2990    0.0000 N   0  0  0  0  0  0  0  0  0  0  0  0
    3.7500   -1.2990    0.0000 N   0  0  0  0  0  0  0  0  0  0  0  0
    3.0000    0.0000    0.0000 C   0  0  0  0  0  0  0  0  0  0  0  0
    3.7500    1.2990    0.0000 O   0  0  0  0  0  0  0  0  0  0  0  0
    1.5000    0.0000    0.0000 C   0  0  0  0  0  0  0  0  0  0  0  0
    0.7500   -1.2990    0.0000 C   0  0  0  0  0  0  0  0  0  0  0  0
   -0.7500   -1.2990    0.0000 C   0  0  0  0  0  0  0  0  0  0  0  0
   -1.5000    0.0000    0.0000 N   0  0  0  0  0  0  0  0  0  0  0  0
   -0.7500    1.2990    0.0000 C   0  0  0  0  0  0  0  0  0  0  0  0
    0.7500    1.2990    0.0000 C   0  0  0  0  0  0  0  0  0  0  0  0
  1  2  1  0
  2  3  1  0
  3  4  2  0
  3  5  1  0
  5  6  2  0
  6  7  1  0
  7  8  2  0
  8  9  1  0
  9 10  2  0
 10  5  1  0
M  END
$$$$
8788
     RDKit          2D

 12 13  0  0  0  0  0  0  0  0999 V2000
   -3.7500   -3.8971    0.0000 N   0  0  0  0  0  0  0  0  0  0  0  0
   -3.0000   -2.5981    0.0000 N   0  0  0  0  0  0  0  0  0  0  0  0
   -1.5000   -2.5981    0.0000 C   0  0  0  0  0  0  0  0  0  0  0  0
   -0.7500   -3.8971    0.0000 N   0  0  0  0  0  0  0  0  0  0  0  0
    0.7500   -3.8971    0.0000 N   0  0  0  0  0  0  0  0  0  0  0  0
    1.5000   -2.5981    0.0000 C   0  0  0  0  0  0  0  0  0  0  0  0
    0.7500   -1.2990    0.0000 C   0  0  0  0  0  0  0  0  0  0  0  0
    1.5000    0.0000    0.0000 C   0  0  0  0  0  0  0  0  0  0  0  0
    0.7500    1.2990    0.0000 C   0  0  0  0  0  0  0  0  0  0  0  0
   -0.7500    1.2990    0.0000 C   0  0  0  0  0  0  0  0  0  0  0  0
   -1.5000    0.0000    0.0000 C   0  0  0  0  0  0  0  0  0  0  0  0
   -0.7500   -1.2990    0.0000 C   0  0  0  0  0  0  0  0  0  0  0  0
  1  2  1  0
  2  3  1  0
  3  4  2  0
  4  5  1  0
  5  6  2  0
  6  7  1  0
  7  8  2  0
  8  9  1  0
  9 10  2  0
 10 11  1  0
 11 12  2  0
 12  3  1  0
 12  7  1  0
M  END
$$$$
148018
     RDKit          2D

 10 10  0  0  0  0  0  0  0  0999 V2000
    6.0000   -2.5981    0.0000 N   0  0  0  0  0  0  0  0  0  0  0  0
    5.2500   -1.2990    0.0000 N   0  0  0  0  0  0  0  0  0  0  0  0
    3.7500   -1.2990    0.0000 C   0  0  0  0  0  0  0  0  0  0  0  0
    3.0000    0.0000    0.0000 C   0  0  0  0  0  0  0  0  0  0  0  0
    1.5000    0.0000    0.0000 C   0  0  0  0  0  0  0  0  0  0  0  0
    0.7500   -1.2990    0.0000 C   0  0  0  0  0  0  0  0  0  0  0  0
   -0.7500   -1.2990    0.0000 C   0  0  0  0  0  0  0  0  0  0  0  0
   -1.5000    0.0000    0.0000 C   0  0  0  0  0  0  0  0  0  0  0  0
   -0.7500    1.2990    0.0000 C   0  0  0  0  0  0  0  0  0  0  0  0
    0.7500    1.2990    0.0000 C   0  0  0  0  0  0  0  0  0  0  0  0
  1  2  1  0
  2  3  1  0
  3  4  1  0
  4  5  1  0
  5  6  2  0
  6  7  1  0
  7  8  2  0
  8  9  1  0
  9 10  2  0
 10  5  1  0
M  END
$$$$
674846
     RDKit          2D

 15 14  0  0  0  0  0  0  0  0999 V2000
    6.0000   -2.5981    0.0000 N   0  0  0  0  0  0  0  0  0  0  0  0
    5.2500   -1.2990    0.0000 N   0  0  0  0  0  0  0  0  0  0  0  0
    3.7500   -1.2990    0.0000 C   0  0  0  0  0  0  0  0  0  0  0  0
    3.0000    0.0000    0.0000 C   0  0  0  0  0  0  0  0  0  0  0  0
    1.5000    0.0000    0.0000 C   0  0  0  0  0  0  0  0  0  0  0  0
    0.7500   -1.2990    0.0000 C   0  0  0  0  0  0  0  0  0  0  0  0
   -0.7500   -1.2990    0.0000 C   0  0  0  0  0  0  0  0  0  0  0  0
   -1.5000    0.0000    0.0000 C   0  0  0  0  0  0  0  0  0  0  0  0
   -0.7500    1.2990    0.0000 C   0  0  0  0  0  0  0  0  0  0  0  0
    0.7500    1.2990    0.0000 C   0  0  0  0  0  0  0  0  0  0  0  0
    0.0000    2.8481    0.0000 O   0  0  0  0  0  0  0  0  0  0  0  0
    1.2990    3.5981    0.0000 S   0  0  0  0  0  0  0  0  0  0  0  0
    2.0490    2.2990    0.0000 O   0  0  0  0  0  0  0  0  0  0  0  0
    0.5490    4.8971    0.0000 O   0  0  0  0  0  0  0  0  0  0  0  0
    2.5981    4.3481    0.0000 O   0  0  0  0  0  0  0  0  0  0  0  0
  1  2  1  0
  2  3  1  0
  3  4  1  0
  4  5  1  0
  5  6  2  0
  6  7  1  0
  7  8  2  0
  8  9  1  0
  9 10  2  0
 11 12  1  0
 12 13  2  0
 12 14  2  0
 12 15  1  0
 10  5  1  0
M  END
$$$$
2046
     RDKit          2D

 21 22  0  0  0  0  0  0  0  0999 V2000
    4.5000    0.0000    0.0000 N   0  0  0  0  0  0  0  0  0  0  0  0
    3.0000    0.0000    0.0000 S   0  0  0  0  0  0  0  0  0  0  0  0
    3.0000   -1.5000    0.0000 O   0  0  0  0  0  0  0  0  0  0  0  0
    3.0000    1.5000    0.0000 O   0  0  0  0  0  0  0  0  0  0  0  0
    1.5000    0.0000    0.0000 C   0  0  0  0  0  0  0  0  0  0  0  0
    0.7500   -1.2990    0.0000 C   0  0  0  0  0  0  0  0  0  0  0  0
   -0.7500   -1.2990    0.0000 C   0  0  0  0  0  0  0  0  0  0  0  0
   -1.5000   -2.5981    0.0000 C   0  0  0  0  0  0  0  0  0  0  0  0
   -0.7500   -3.8971    0.0000 O   0  0  0  0  0  0  0  0  0  0  0  0
   -3.0000   -2.5981    0.0000 O   0  0  0  0  0  0  0  0  0  0  0  0
   -1.5000    0.0000    0.0000 C   0  0  0  0  0  0  0  0  0  0  0  0
   -3.0000    0.0000    0.0000 N   0  0  0  0  0  0  0  0  0  0  0  0
   -3.7500    1.2990    0.0000 C   0  0  0  0  0  0  0  0  0  0  0  0
   -5.2500    1.2990    0.0000 C   0  0  0  0  0  0  0  0  0  0  0  0
   -6.1317    0.0855    0.0000 O   0  0  0  0  0  0  0  0  0  0  0  0
   -7.5583    0.5490    0.0000 C   0  0  0  0  0  0  0  0  0  0  0  0
   -7.5583    2.0490    0.0000 C   0  0  0  0  0  0  0  0  0  0  0  0
   -6.1317    2.5126    0.0000 C   0  0  0  0  0  0  0  0  0  0  0  0
   -0.7500    1.2990    0.0000 C   0  0  0  0  0  0  0  0  0  0  0  0
    0.7500    1.2990    0.0000 C   0  0  0  0  0  0  0  0  0  0  0  0
    1.5000    2.5981    0.0000 Cl  0  0  0  0  0  0  0  0  0  0  0  0
  1  2  1  0
  2  3  2  0
  2  4  2  0
  2  5  1  0
  5  6  2  0
  6  7  1  0
  7  8  1  0
  8  9  2  0
  8 10  1  0
  7 11  2  0
 11 12  1  0
 12 13  1  0
 13 14  1  0
 14 15  1  0
 15 16  1  0
 16 17  2  0
 17 18  1  0
 11 19  1  0
 19 20  2  0
 20 21  1  0
 20  5  1  0
 18 14  2  0
M  END
$$$$
134333
     RDKit          2D

 22 24  0  0  0  0  0  0  0  0999 V2000
   -4.4245    2.9699    0.0000 N   0  0  0  0  0  0  0  0  0  0  0  0
   -4.2677    1.4782    0.0000 S   0  0  0  0  0  0  0  0  0  0  0  0
   -5.7595    1.3214    0.0000 O   0  0  0  0  0  0  0  0  0  0  0  0
   -2.7760    1.6349    0.0000 O   0  0  0  0  0  0  0  0  0  0  0  0
   -4.1110   -0.0136    0.0000 C   0  0  0  0  0  0  0  0  0  0  0  0
   -2.7406   -0.6237    0.0000 C   0  0  0  0  0  0  0  0  0  0  0  0
   -2.5838   -2.1155    0.0000 C   0  0  0  0  0  0  0  0  0  0  0  0
   -3.7974   -2.9972    0.0000 C   0  0  0  0  0  0  0  0  0  0  0  0
   -5.1677   -2.3871    0.0000 C   0  0  0  0  0  0  0  0  0  0  0  0
   -5.3245   -0.8953    0.0000 C   0  0  0  0  0  0  0  0  0  0  0  0
   -6.6948   -0.2852    0.0000 Cl  0  0  0  0  0  0  0  0  0  0  0  0
   -1.2135   -2.7256    0.0000 C   0  0  0  0  0  0  0  0  0  0  0  0
   -1.9635   -4.0247    0.0000 O   0  0  0  0  0  0  0  0  0  0  0  0
   -0.0000   -3.6073    0.0000 N   0  0  0  0  0  0  0  0  0  0  0  0
    1.2135   -2.7256    0.0000 C   0  0  0  0  0  0  0  0  0  0  0  0
    2.6401   -3.1891    0.0000 O   0  0  0  0  0  0  0  0  0  0  0  0
    0.7500   -1.2990    0.0000 C   0  0  0  0  0  0  0  0  0  0  0  0
    1.5000    0.0000    0.0000 C   0  0  0  0  0  0  0  0  0  0  0  0
    0.7500    1.2990    0.0000 C   0  0  0  0  0  0  0  0  0  0  0  0
   -0.7500    1.2990    0.0000 C   0  0  0  0  0  0  0  0  0  0  0  0
   -1.5000    0.0000    0.0000 C   0  0  0  0  0  0  0  0  0  0  0  0
   -0.7500   -1.2990    0.0000 C   0  0  0  0  0  0  0  0  0  0  0  0
  1  2  1  0
  2  3  2  0
  2  4  2  0
  2  5  1  0
  5  6  2  0
  6  7  1  0
  7  8  2  0
  8  9  1  0
  9 10  2  0
 10 11  1  0
  7 12  1  0
 12 13  1  0
 12 14  1  0
 14 15  1  0
 15 16  2  0
 15 17  1  0
 17 18  2  0
 18 19  1  0
 19 20  2  0
 20 21  1  0
 21 22  2  0
 10  5  1  0
 22 12  1  0
 22 17  1  0
M  END
$$$$
1085
     RDKit          2D

 16 16  0  0  0  0  0  0  0  0999 V2000
    4.5000    0.0000    0.0000 N   0  0  0  0  0  0  0  0  0  0  0  0
    3.0000    0.0000    0.0000 S   0  0  0  0  0  0  0  0  0  0  0  0
    3.0000   -1.5000    0.0000 O   0  0  0  0  0  0  0  0  0  0  0  0
    3.0000    1.5000    0.0000 O   0  0  0  0  0  0  0  0  0  0  0  0
    1.5000    0.0000    0.0000 C   0  0  0  0  0  0  0  0  0  0  0  0
    0.7500   -1.2990    0.0000 C   0  0  0  0  0  0  0  0  0  0  0  0
   -0.7500   -1.2990    0.0000 C   0  0  0  0  0  0  0  0  0  0  0  0
   -1.5000   -2.5981    0.0000 Cl  0  0  0  0  0  0  0  0  0  0  0  0
   -1.5000    0.0000    0.0000 C   0  0  0  0  0  0  0  0  0  0  0  0
   -3.0000    0.0000    0.0000 Cl  0  0  0  0  0  0  0  0  0  0  0  0
   -0.7500    1.2990    0.0000 C   0  0  0  0  0  0  0  0  0  0  0  0
    0.7500    1.2990    0.0000 C   0  0  0  0  0  0  0  0  0  0  0  0
   -1.5000    2.5981    0.0000 S   0  0  0  0  0  0  0  0  0  0  0  0
   -0.2010    3.3481    0.0000 O   0  0  0  0  0  0  0  0  0  0  0  0
   -2.7990    1.8481    0.0000 O   0  0  0  0  0  0  0  0  0  0  0  0
   -2.2500    3.8971    0.0000 N   0  0  0  0  0  0  0  0  0  0  0  0
  1  2  1  0
  2  3  2  0
  2  4  2  0
  2  5  1  0
  5  6  2  0
  6  7  1  0
  7  8  1  0
  7  9  2  0
  9 10  1  0
  9 11  1  0
 11 12  2  0
 11 13  1  0
 13 14  2  0
 13 15  2  0
 13 16  1  0
 12  5  1  0
M  END
$$$$
674990
     RDKit          2D

 26 28  0  0  0  0  0  0  0  0999 V2000
    4.5000    0.0000    0.0000 N   0  0  0  0  0  0  0  0  0  0  0  0
    3.0000    0.0000    0.0000 S   0  0  0  0  0  0  0  0  0  0  0  0
    3.0000   -1.5000    0.0000 O   0  0  0  0  0  0  0  0  0  0  0  0
    3.0000    1.5000    0.0000 O   0  0  0  0  0  0  0  0  0  0  0  0
    1.5000    0.0000    0.0000 C   0  0  0  0  0  0  0  0  0  0  0  0
    0.7500   -1.2990    0.0000 C   0  0  0  0  0  0  0  0  0  0  0  0
   -0.7500   -1.2990    0.0000 C   0  0  0  0  0  0  0  0  0  0  0  0
   -1.5000    0.0000    0.0000 C   0  0  0  0  0  0  0  0  0  0  0  0
   -0.7500    1.2990    0.0000 C   0  0  0  0  0  0  0  0  0  0  0  0
    0.7500    1.2990    0.0000 C   0  0  0  0  0  0  0  0  0  0  0  0
    1.5000    2.5981    0.0000 Cl  0  0  0  0  0  0  0  0  0  0  0  0
   -3.0000    0.0000    0.0000 N   0  0  0  0  0  0  0  0  0  0  0  0
   -3.7500   -1.2990    0.0000 C   0  0  0  0  0  0  0  0  0  0  0  0
   -5.2500   -1.2990    0.0000 C   0  0  0  0  0  0  0  0  0  0  0  0
   -6.0000    0.0000    0.0000 S   0  0  0  0  0  0  0  0  0  0  0  0
   -7.5000   -0.0000    0.0000 C   0  0  0  0  0  0  0  0  0  0  0  0
   -8.2500    1.2990    0.0000 C   0  0  0  0  0  0  0  0  0  0  0  0
   -7.5000    2.5981    0.0000 C   0  0  0  0  0  0  0  0  0  0  0  0
   -8.2500    3.8971    0.0000 C   0  0  0  0  0  0  0  0  0  0  0  0
   -9.7500    3.8971    0.0000 C   0  0  0  0  0  0  0  0  0  0  0  0
  -10.5000    2.5981    0.0000 C   0  0  0  0  0  0  0  0  0  0  0  0
   -9.7500    1.2990    0.0000 C   0  0  0  0  0  0  0  0  0  0  0  0
   -3.0000   -2.5981    0.0000 N   0  0  0  0  0  0  0  0  0  0  0  0
   -1.5000   -2.5981    0.0000 S   0  0  0  0  0  0  0  0  0  0  0  0
   -0.0905   -3.1111    0.0000 O   0  0  0  0  0  0  0  0  0  0  0  0
   -1.7605   -4.0753    0.0000 O   0  0  0  0  0  0  0  0  0  0  0  0
  1  2  1  0
  2  3  2  0
  2  4  2  0
  2  5  1  0
  5  6  2  0
  6  7  1  0
  7  8  2  0
  8  9  1  0
  9 10  2  0
 10 11  1  0
  8 12  1  0
 12 13  2  0
 13 14  1  0
 14 15  1  0
 15 16  1  0
 16 17  1  0
 17 18  2  0
 18 19  1  0
 19 20  2  0
 20 21  1  0
 21 22  2  0
 13 23  1  0
 23 24  1  0
 24 25  2  0
 24 26  2  0
 10  5  1  0
 24  7  1  0
 22 17  1  0
M  END
$$$$
62615
     RDKit          2D

 17 18  0  0  0  0  0  0  0  0999 V2000
   -2.2500   -6.4952    0.0000 N   0  0  0  0  0  0  0  0  0  0  0  0
   -1.5000   -5.1962    0.0000 S   0  0  0  0  0  0  0  0  0  0  0  0
   -2.7990   -4.4462    0.0000 O   0  0  0  0  0  0  0  0  0  0  0  0
   -0.2010   -5.9462    0.0000 O   0  0  0  0  0  0  0  0  0  0  0  0
   -0.7500   -3.8971    0.0000 C   0  0  0  0  0  0  0  0  0  0  0  0
   -1.5000   -2.5981    0.0000 C   0  0  0  0  0  0  0  0  0  0  0  0
   -0.7500   -1.2990    0.0000 C   0  0  0  0  0  0  0  0  0  0  0  0
    0.7500   -1.2990    0.0000 C   0  0  0  0  0  0  0  0  0  0  0  0
    1.5000   -2.5981    0.0000 C   0  0  0  0  0  0  0  0  0  0  0  0
    0.7500   -3.8971    0.0000 C   0  0  0  0  0  0  0  0  0  0  0  0
    1.5000   -5.1962    0.0000 Cl  0  0  0  0  0  0  0  0  0  0  0  0
    1.5000    0.0000    0.0000 N   0  0  0  0  0  0  0  0  0  0  0  0
    0.7500    1.2990    0.0000 C   0  0  0  0  0  0  0  0  0  0  0  0
   -0.7500    1.2990    0.0000 N   0  0  0  0  0  0  0  0  0  0  0  0
   -1.5000    0.0000    0.0000 S   0  0  0  0  0  0  0  0  0  0  0  0
   -2.6491   -0.9642    0.0000 O   0  0  0  0  0  0  0  0  0  0  0  0
   -2.6491    0.9642    0.0000 O   0  0  0  0  0  0  0  0  0  0  0  0
  1  2  1  0
  2  3  2  0
  2  4  2  0
  2  5  1  0
  5  6  2  0
  6  7  1  0
  7  8  2  0
  8  9  1  0
  9 10  2  0
 10 11  1  0
  8 12  1  0
 12 13  2  0
 13 14  1  0
 14 15  1  0
 15 16  2  0
 15 17  2  0
 10  5  1  0
 15  7  1  0
M  END
$$$$
515239
     RDKit          2D

 27 29  0  0  0  0  0  0  0  0999 V2000
    4.5000   -0.0000    0.0000 N   0  0  0  0  0  0  0  0  0  0  0  0
    3.0000   -0.0000    0.0000 S   0  0  0  0  0  0  0  0  0  0  0  0
    3.1481    1.2059    0.0000 O   0  0  0  0  0  0  0  0  0  0  0  0
    3.0000   -1.5000    0.0000 O   0  0  0  0  0  0  0  0  0  0  0  0
    1.5000    0.0000    0.0000 C   0  0  0  0  0  0  0  0  0  0  0  0
    0.7500   -1.2990    0.0000 C   0  0  0  0  0  0  0  0  0  0  0  0
   -0.7500   -1.2990    0.0000 C   0  0  0  0  0  0  0  0  0  0  0  0
   -1.5000    0.0000    0.0000 C   0  0  0  0  0  0  0  0  0  0  0  0
   -3.0000    0.0000    0.0000 N   0  0  0  0  0  0  0  0  0  0  0  0
   -3.7500   -1.2990    0.0000 C   0  0  0  0  0  0  0  0  0  0  0  0
   -5.2500   -1.2990    0.0000 C   0  0  0  0  0  0  0  0  0  0  0  0
   -6.0000    0.0000    0.0000 C   0  0  0  0  0  0  0  0  0  0  0  0
   -5.2500    1.2990    0.0000 C   0  0  0  0  0  0  0  0  0  0  0  0
   -6.0000    2.5981    0.0000 C   0  0  0  0  0  0  0  0  0  0  0  0
   -7.5000    2.5981    0.0000 C   0  0  0  0  0  0  0  0  0  0  0  0
   -8.2500    1.2990    0.0000 C   0  0  0  0  0  0  0  0  0  0  0  0
   -7.5000    0.0000    0.0000 C   0  0  0  0  0  0  0  0  0  0  0  0
   -3.0000   -2.5981    0.0000 N   0  0  0  0  0  0  0  0  0  0  0  0
   -1.5000   -2.5981    0.0000 S   0  0  0  0  0  0  0  0  0  0  0  0
   -0.0905   -3.1111    0.0000 O   0  0  0  0  0  0  0  0  0  0  0  0
   -1.7605   -4.0753    0.0000 O   0  0  0  0  0  0  0  0  0  0  0  0
   -0.7500    1.2990    0.0000 C   0  0  0  0  0  0  0  0  0  0  0  0
    0.7500    1.2990    0.0000 C   0  0  0  0  0  0  0  0  0  0  0  0
    1.5000    2.5981    0.0000 C   0  0  0  0  0  0  0  0  0  0  0  0
    2.2500    3.8971    0.0000 F   0  0  0  0  0  0  0  0  0  0  0  0
    0.2010    3.3481    0.0000 F   0  0  0  0  0  0  0  0  0  0  0  0
    2.6184    2.1234    0.0000 F   0  0  0  0  0  0  0  0  0  0  0  0
  1  2  1  0
  2  3  2  0
  2  4  2  0
  2  5  1  0
  5  6  2  0
  6  7  1  0
  7  8  2  0
  8  9  1  0
  9 10  1  0
 10 11  1  0
 11 12  1  0
 12 13  2  0
 13 14  1  0
 14 15  2  0
 15 16  1  0
 16 17  2  0
 10 18  1  0
 18 19  1  0
 19 20  2  0
 19 21  2  0
  8 22  1  0
 22 23  2  0
 23 24  1  0
 24 25  1  0
 24 26  1  0
 24 27  1  0
 23  5  1  0
 19  7  1  0
 17 12  1  0
M  END
$$$$
134100
     RDKit          2D

 20 21  0  0  0  0  0  0  0  0999 V2000
    4.5000    0.0000    0.0000 N   0  0  0  0  0  0  0  0  0  0  0  0
    3.0000    0.0000    0.0000 S   0  0  0  0  0  0  0  0  0  0  0  0
    3.0000   -1.5000    0.0000 O   0  0  0  0  0  0  0  0  0  0  0  0
    3.0000    1.5000    0.0000 O   0  0  0  0  0  0  0  0  0  0  0  0
    1.5000    0.0000    0.0000 C   0  0  0  0  0  0  0  0  0  0  0  0
    0.7500   -1.2990    0.0000 C   0  0  0  0  0  0  0  0  0  0  0  0
   -0.7500   -1.2990    0.0000 C   0  0  0  0  0  0  0  0  0  0  0  0
   -1.5000    0.0000    0.0000 C   0  0  0  0  0  0  0  0  0  0  0  0
   -3.0000    0.0000    0.0000 N   0  0  0  0  0  0  0  0  0  0  0  0
   -3.7500   -1.2990    0.0000 C   0  0  0  0  0  0  0  0  0  0  0  0
   -3.0000   -2.5981    0.0000 N   0  0  0  0  0  0  0  0  0  0  0  0
   -1.5000   -2.5981    0.0000 S   0  0  0  0  0  0  0  0  0  0  0  0
   -0.0905   -3.1111    0.0000 O   0  0  0  0  0  0  0  0  0  0  0  0
   -1.7605   -4.0753    0.0000 O   0  0  0  0  0  0  0  0  0  0  0  0
   -5.2500   -1.2990    0.0000 C   0  0  0  0  0  0  0  0  0  0  0  0
   -6.0000    0.0000    0.0000 Cl  0  0  0  0  0  0  0  0  0  0  0  0
   -6.0000   -2.5981    0.0000 Cl  0  0  0  0  0  0  0  0  0  0  0  0
   -0.7500    1.2990    0.0000 C   0  0  0  0  0  0  0  0  0  0  0  0
    0.7500    1.2990    0.0000 C   0  0  0  0  0  0  0  0  0  0  0  0
    1.5000    2.5981    0.0000 Cl  0  0  0  0  0  0  0  0  0  0  0  0
  1  2  1  0
  2  3  2  0
  2  4  2  0
  2  5  1  0
  5  6  2  0
  6  7  1  0
  7  8  2  0
  8  9  1  0
  9 10  1  0
 10 11  1  0
 11 12  1  0
 12 13  2  0
 12 14  2  0
 10 15  1  0
 15 16  1  0
 15 17  1  0
  8 18  1  0
 18 19  2  0
 19 20  1  0
 19  5  1  0
 12  7  1  0
M  END
$$$$
92458
     RDKit          2D

 24 27  0  0  0  0  0  0  0  0999 V2000
    4.5000    0.0000    0.0000 N   0  0  0  0  0  0  0  0  0  0  0  0
    3.0000    0.0000    0.0000 S   0  0  0  0  0  0  0  0  0  0  0  0
    3.0000   -1.5000    0.0000 O   0  0  0  0  0  0  0  0  0  0  0  0
    3.0000    1.5000    0.0000 O   0  0  0  0  0  0  0  0  0  0  0  0
    1.5000    0.0000    0.0000 C   0  0  0  0  0  0  0  0  0  0  0  0
    0.7500   -1.2990    0.0000 C   0  0  0  0  0  0  0  0  0  0  0  0
   -0.7500   -1.2990    0.0000 C   0  0  0  0  0  0  0  0  0  0  0  0
   -1.5000    0.0000    0.0000 C   0  0  0  0  0  0  0  0  0  0  0  0
   -3.0000    0.0000    0.0000 N   0  0  0  0  0  0  0  0  0  0  0  0
   -3.7500   -1.2990    0.0000 C   0  0  0  0  0  0  0  0  0  0  0  0
   -3.0000   -2.5981    0.0000 N   0  0  0  0  0  0  0  0  0  0  0  0
   -1.5000   -2.5981    0.0000 S   0  0  0  0  0  0  0  0  0  0  0  0
   -0.0905   -3.1111    0.0000 O   0  0  0  0  0  0  0  0  0  0  0  0
   -1.7605   -4.0753    0.0000 O   0  0  0  0  0  0  0  0  0  0  0  0
   -5.2500   -1.2990    0.0000 C   0  0  0  0  0  0  0  0  0  0  0  0
   -6.1317   -0.0855    0.0000 C   0  0  0  0  0  0  0  0  0  0  0  0
   -7.5583   -0.5490    0.0000 C   0  0  0  0  0  0  0  0  0  0  0  0
   -6.1317   -1.0126    0.0000 C   0  0  0  0  0  0  0  0  0  0  0  0
   -6.1317   -2.5126    0.0000 C   0  0  0  0  0  0  0  0  0  0  0  0
   -7.5583   -2.9761    0.0000 C   0  0  0  0  0  0  0  0  0  0  0  0
   -8.4399   -1.7626    0.0000 C   0  0  0  0  0  0  0  0  0  0  0  0
   -0.7500    1.2990    0.0000 C   0  0  0  0  0  0  0  0  0  0  0  0
    0.7500    1.2990    0.0000 C   0  0  0  0  0  0  0  0  0  0  0  0
    1.5000    2.5981    0.0000 Cl  0  0  0  0  0  0  0  0  0  0  0  0
  1  2  1  0
  2  3  2  0
  2  4  2  0
  2  5  1  0
  5  6  2  0
  6  7  1  0
  7  8  2  0
  8  9  1  0
  9 10  1  0
 10 11  1  0
 11 12  1  0
 12 13  2  0
 12 14  2  0
 10 15  1  0
 15 16  1  0
 16 17  1  0
 17 18  1  0
 18 19  1  0
 19 20  1  0
 20 21  2  0
  8 22  1  0
 22 23  2  0
 23 24  1  0
 23  5  1  0
 12  7  1  0
 19 15  1  0
 21 17  1  0
M  END
$$$$
583522
     RDKit          2D

 20 21  0  0  0  0  0  0  0  0999 V2000
   -2.2500   -6.4952    0.0000 N   0  0  0  0  0  0  0  0  0  0  0  0
   -1.5000   -5.1962    0.0000 S   0  0  0  0  0  0  0  0  0  0  0  0
   -0.5297   -5.9274    0.0000 O   0  0  0  0  0  0  0  0  0  0  0  0
   -2.7990   -4.4462    0.0000 O   0  0  0  0  0  0  0  0  0  0  0  0
   -0.7500   -3.8971    0.0000 C   0  0  0  0  0  0  0  0  0  0  0  0
   -1.5000   -2.5981    0.0000 C   0  0  0  0  0  0  0  0  0  0  0  0
   -0.7500   -1.2990    0.0000 C   0  0  0  0  0  0  0  0  0  0  0  0
    0.7500   -1.2990    0.0000 C   0  0  0  0  0  0  0  0  0  0  0  0
    1.5000    0.0000    0.0000 N   0  0  0  0  0  0  0  0  0  0  0  0
    0.7500    1.2990    0.0000 C   0  0  0  0  0  0  0  0  0  0  0  0
   -0.7500    1.2990    0.0000 N   0  0  0  0  0  0  0  0  0  0  0  0
   -1.5000    0.0000    0.0000 S   0  0  0  0  0  0  0  0  0  0  0  0
   -2.6491   -0.9642    0.0000 O   0  0  0  0  0  0  0  0  0  0  0  0
   -2.6491    0.9642    0.0000 O   0  0  0  0  0  0  0  0  0  0  0  0
    1.5000   -2.5981    0.0000 C   0  0  0  0  0  0  0  0  0  0  0  0
    0.7500   -3.8971    0.0000 C   0  0  0  0  0  0  0  0  0  0  0  0
    1.5000   -5.1962    0.0000 C   0  0  0  0  0  0  0  0  0  0  0  0
    2.2500   -6.4952    0.0000 F   0  0  0  0  0  0  0  0  0  0  0  0
    2.7990   -4.4462    0.0000 F   0  0  0  0  0  0  0  0  0  0  0  0
    0.5297   -5.9274    0.0000 F   0  0  0  0  0  0  0  0  0  0  0  0
  1  2  1  0
  2  3  2  0
  2  4  2  0
  2  5  1  0
  5  6  2  0
  6  7  1  0
  7  8  2  0
  8  9  1  0
  9 10  1  0
 10 11  1  0
 11 12  1  0
 12 13  2  0
 12 14  2  0
  8 15  1  0
 15 16  2  0
 16 17  1  0
 17 18  1  0
 17 19  1  0
 17 20  1  0
 16  5  1  0
 12  7  1  0
M  END
$$$$
2045
     RDKit          2D

 17 18  0  0  0  0  0  0  0  0999 V2000
   -2.2500   -6.4952    0.0000 N   0  0  0  0  0  0  0  0  0  0  0  0
   -1.5000   -5.1962    0.0000 S   0  0  0  0  0  0  0  0  0  0  0  0
   -2.7990   -4.4462    0.0000 O   0  0  0  0  0  0  0  0  0  0  0  0
   -0.2010   -5.9462    0.0000 O   0  0  0  0  0  0  0  0  0  0  0  0
   -0.7500   -3.8971    0.0000 C   0  0  0  0  0  0  0  0  0  0  0  0
   -1.5000   -2.5981    0.0000 C   0  0  0  0  0  0  0  0  0  0  0  0
   -0.7500   -1.2990    0.0000 C   0  0  0  0  0  0  0  0  0  0  0  0
    0.7500   -1.2990    0.0000 C   0  0  0  0  0  0  0  0  0  0  0  0
    1.5000    0.0000    0.0000 N   0  0  0  0  0  0  0  0  0  0  0  0
    0.7500    1.2990    0.0000 C   0  0  0  0  0  0  0  0  0  0  0  0
   -0.7500    1.2990    0.0000 N   0  0  0  0  0  0  0  0  0  0  0  0
   -1.5000    0.0000    0.0000 S   0  0  0  0  0  0  0  0  0  0  0  0
   -2.6491   -0.9642    0.0000 O   0  0  0  0  0  0  0  0  0  0  0  0
   -2.6491    0.9642    0.0000 O   0  0  0  0  0  0  0  0  0  0  0  0
    1.5000   -2.5981    0.0000 C   0  0  0  0  0  0  0  0  0  0  0  0
    0.7500   -3.8971    0.0000 C   0  0  0  0  0  0  0  0  0  0  0  0
    1.5000   -5.1962    0.0000 Cl  0  0  0  0  0  0  0  0  0  0  0  0
  1  2  1  0
  2  3  2  0
  2  4  2  0
  2  5  1  0
  5  6  2  0
  6  7  1  0
  7  8  2  0
  8  9  1  0
  9 10  1  0
 10 11  1  0
 11 12  1  0
 12 13  2  0
 12 14  2  0
  8 15  1  0
 15 16  2  0
 16 17  1  0
 16  5  1  0
 12  7  1  0
M  END
$$$$
1369657
     RDKit          2D

  4  3  0  0  0  0  0  0  0  0999 V2000
    1.2990    0.7500    0.0000 N   0  0  0  0  0  0  0  0  0  0  0  0
    0.0000    0.0000    0.0000 C   0  0  0  0  0  0  0  0  0  0  0  0
   -0.0000   -1.5000    0.0000 O   0  0  0  0  0  0  0  0  0  0  0  0
   -1.2990    0.7500    0.0000 N   0  0  0  0  0  0  0  0  0  0  0  0
  1  2  1  0
  2  3  2  0
  2  4  1  0
M  ISO  1   2  13
M  END
$$$$
1369644
     RDKit          2D

  4  3  0  0  0  0  0  0  0  0999 V2000
    1.2990    0.7500    0.0000 N   0  0  0  0  0  0  0  0  0  0  0  0
    0.0000    0.0000    0.0000 C   0  0  0  0  0  0  0  0  0  0  0  0
   -0.0000   -1.5000    0.0000 O   0  0  0  0  0  0  0  0  0  0  0  0
   -1.2990    0.7500    0.0000 N   0  0  0  0  0  0  0  0  0  0  0  0
  1  2  1  0
  2  3  2  0
  2  4  1  0
M  ISO  1   2  14
M  END
$$$$
114480
     RDKit          2D

 24 26  0  0  0  0  0  0  0  0999 V2000
    3.9320   -5.9810    0.0000 N   0  0  0  0  0  0  0  0  0  0  0  0
    2.4831   -6.3692    0.0000 C   0  0  0  0  0  0  0  0  0  0  0  0
    1.4224   -5.3086    0.0000 C   0  0  0  0  0  0  0  0  0  0  0  0
   -0.0265   -5.6968    0.0000 O   0  0  0  0  0  0  0  0  0  0  0  0
    1.8107   -3.8597    0.0000 N   0  0  0  0  0  0  0  0  0  0  0  0
    0.7500   -2.7990    0.0000 C   0  0  0  0  0  0  0  0  0  0  0  0
    0.7500   -1.2990    0.0000 C   0  0  0  0  0  0  0  0  0  0  0  0
    1.5000    0.0000    0.0000 C   0  0  0  0  0  0  0  0  0  0  0  0
    0.7500    1.2990    0.0000 C   0  0  0  0  0  0  0  0  0  0  0  0
   -0.7500    1.2990    0.0000 C   0  0  0  0  0  0  0  0  0  0  0  0
   -1.5000    0.0000    0.0000 C   0  0  0  0  0  0  0  0  0  0  0  0
   -0.7500   -1.2990    0.0000 N   0  0  0  0  0  0  0  0  0  0  0  0
   -0.7500   -2.7990    0.0000 C   0  0  0  0  0  0  0  0  0  0  0  0
   -1.8107   -3.8597    0.0000 O   0  0  0  0  0  0  0  0  0  0  0  0
   -3.0000    0.0000    0.0000 C   0  0  0  0  0  0  0  0  0  0  0  0
   -3.7500   -1.2990    0.0000 O   0  0  0  0  0  0  0  0  0  0  0  0
   -3.7500    1.2990    0.0000 O   0  0  0  0  0  0  0  0  0  0  0  0
   -1.5000    2.5981    0.0000 Cl  0  0  0  0  0  0  0  0  0  0  0  0
    2.0949   -7.8181    0.0000 C   0  0  0  0  0  0  0  0  0  0  0  0
    0.6460   -8.2064    0.0000 C   0  0  0  0  0  0  0  0  0  0  0  0
    0.2577   -9.6553    0.0000 C   0  0  0  0  0  0  0  0  0  0  0  0
    1.3184  -10.7159    0.0000 C   0  0  0  0  0  0  0  0  0  0  0  0
    2.7673  -10.3277    0.0000 C   0  0  0  0  0  0  0  0  0  0  0  0
    3.1555   -8.8788    0.0000 C   0  0  0  0  0  0  0  0  0  0  0  0
  2  1  1  6
  2  3  1  0
  3  4  2  0
  3  5  1  0
  6  5  1  6
  6  7  1  0
  7  8  1  6
  8  9  1  0
  9 10  1  0
 10 11  2  0
 11 12  1  0
 12 13  1  0
 13 14  2  0
 11 15  1  0
 15 16  2  0
 15 17  1  0
 10 18  1  0
  2 19  1  0
 19 20  2  0
 20 21  1  0
 21 22  2  0
 22 23  1  0
 23 24  2  0
 13  6  1  0
 12  7  1  0
 24 19  1  0
M  END
$$$$
29005
     RDKit          2D

 24 26  0  0  0  0  0  0  0  0999 V2000
    3.9320   -5.9810    0.0000 N   0  0  0  0  0  0  0  0  0  0  0  0
    2.4831   -6.3692    0.0000 C   0  0  0  0  0  0  0  0  0  0  0  0
    1.4224   -5.3086    0.0000 C   0  0  0  0  0  0  0  0  0  0  0  0
   -0.0265   -5.6968    0.0000 O   0  0  0  0  0  0  0  0  0  0  0  0
    1.8107   -3.8597    0.0000 N   0  0  0  0  0  0  0  0  0  0  0  0
    0.7500   -2.7990    0.0000 C   0  0  0  0  0  0  0  0  0  0  0  0
    0.7500   -1.2990    0.0000 C   0  0  0  0  0  0  0  0  0  0  0  0
    1.5000    0.0000    0.0000 S   0  0  0  0  0  0  0  0  0  0  0  0
    0.7500    1.2990    0.0000 C   0  0  0  0  0  0  0  0  0  0  0  0
   -0.7500    1.2990    0.0000 C   0  0  0  0  0  0  0  0  0  0  0  0
   -1.5000    0.0000    0.0000 C   0  0  0  0  0  0  0  0  0  0  0  0
   -0.7500   -1.2990    0.0000 N   0  0  0  0  0  0  0  0  0  0  0  0
   -0.7500   -2.7990    0.0000 C   0  0  0  0  0  0  0  0  0  0  0  0
   -1.8107   -3.8597    0.0000 O   0  0  0  0  0  0  0  0  0  0  0  0
   -3.0000    0.0000    0.0000 C   0  0  0  0  0  0  0  0  0  0  0  0
   -3.7500   -1.2990    0.0000 O   0  0  0  0  0  0  0  0  0  0  0  0
   -3.7500    1.2990    0.0000 O   0  0  0  0  0  0  0  0  0  0  0  0
   -1.5000    2.5981    0.0000 Cl  0  0  0  0  0  0  0  0  0  0  0  0
    2.0949   -7.8181    0.0000 C   0  0  0  0  0  0  0  0  0  0  0  0
    0.6460   -8.2064    0.0000 C   0  0  0  0  0  0  0  0  0  0  0  0
    0.2577   -9.6553    0.0000 C   0  0  0  0  0  0  0  0  0  0  0  0
    1.3184  -10.7159    0.0000 C   0  0  0  0  0  0  0  0  0  0  0  0
    2.7673  -10.3277    0.0000 C   0  0  0  0  0  0  0  0  0  0  0  0
    3.1555   -8.8788    0.0000 C   0  0  0  0  0  0  0  0  0  0  0  0
  2  1  1  6
  2  3  1  0
  3  4  2  0
  3  5  1  0
  6  5  1  6
  6  7  1  0
  7  8  1  6
  8  9  1  0
  9 10  1  0
 10 11  2  0
 11 12  1  0
 12 13  1  0
 13 14  2  0
 11 15  1  0
 15 16  2  0
 15 17  1  0
 10 18  1  0
  2 19  1  0
 19 20  2  0
 20 21  1  0
 21 22  2  0
 22 23  1  0
 23 24  2  0
 13  6  1  0
 12  7  1  0
 24 19  1  0
M  END
$$$$
363589
     RDKit          2D

 28 30  0  0  0  0  0  0  0  0999 V2000
    3.0000   -5.1962    0.0000 N   0  0  0  0  0  0  0  0  0  0  0  0
    1.5000   -5.1962    0.0000 C   0  0  0  0  0  0  0  0  0  0  0  0
    0.7500   -3.8971    0.0000 C   0  0  0  0  0  0  0  0  0  0  0  0
    1.5000   -2.5981    0.0000 C   0  0  0  0  0  0  0  0  0  0  0  0
    3.0000   -2.5981    0.0000 O   0  0  0  0  0  0  0  0  0  0  0  0
    0.7500   -1.2990    0.0000 N   0  0  0  0  0  0  0  0  0  0  0  0
    1.5000    0.0000    0.0000 C   0  0  0  0  0  0  0  0  0  0  0  0
    0.7500    1.2990    0.0000 C   0  0  0  0  0  0  0  0  0  0  0  0
   -0.7500    1.2990    0.0000 N   0  0  0  0  0  0  0  0  0  0  0  0
   -1.5000    0.0000    0.0000 C   0  0  0  0  0  0  0  0  0  0  0  0
   -0.7500   -1.2990    0.0000 C   0  0  0  0  0  0  0  0  0  0  0  0
   -2.9672    0.3119    0.0000 N   0  0  0  0  0  0  0  0  0  0  0  0
   -3.1240    1.8037    0.0000 N   0  0  0  0  0  0  0  0  0  0  0  0
   -1.7537    2.4138    0.0000 C   0  0  0  0  0  0  0  0  0  0  0  0
   -1.4418    3.8810    0.0000 C   0  0  0  0  0  0  0  0  0  0  0  0
   -1.1300    5.3482    0.0000 F   0  0  0  0  0  0  0  0  0  0  0  0
   -2.9090    4.1928    0.0000 F   0  0  0  0  0  0  0  0  0  0  0  0
    0.0254    3.5691    0.0000 F   0  0  0  0  0  0  0  0  0  0  0  0
    0.7500   -6.4952    0.0000 C   0  0  0  0  0  0  0  0  0  0  0  0
    1.5000   -7.7942    0.0000 C   0  0  0  0  0  0  0  0  0  0  0  0
    0.7500   -9.0933    0.0000 C   0  0  0  0  0  0  0  0  0  0  0  0
    1.5000  -10.3923    0.0000 C   0  0  0  0  0  0  0  0  0  0  0  0
    0.7500  -11.6913    0.0000 F   0  0  0  0  0  0  0  0  0  0  0  0
    3.0000  -10.3923    0.0000 C   0  0  0  0  0  0  0  0  0  0  0  0
    3.7500  -11.6913    0.0000 F   0  0  0  0  0  0  0  0  0  0  0  0
    3.7500   -9.0933    0.0000 C   0  0  0  0  0  0  0  0  0  0  0  0
    3.0000   -7.7942    0.0000 C   0  0  0  0  0  0  0  0  0  0  0  0
    3.7500   -6.4952    0.0000 F   0  0  0  0  0  0  0  0  0  0  0  0
  2  1  1  6
  2  3  1  0
  3  4  1  0
  4  5  2  0
  4  6  1  0
  6  7  1  0
  7  8  1  0
  8  9  1  0
  9 10  1  0
 10 11  1  0
 10 12  2  0
 12 13  1  0
 13 14  2  0
 14 15  1  0
 15 16  1  0
 15 17  1  0
 15 18  1  0
  2 19  1  0
 19 20  1  0
 20 21  2  0
 21 22  1  0
 22 23  1  0
 22 24  2  0
 24 25  1  0
 24 26  1  0
 26 27  2  0
 27 28  1  0
 11  6  1  0
 14  9  1  0
 27 20  1  0
M  END
$$$$
469690
     RDKit          2D

 24 25  0  0  0  0  0  0  0  0999 V2000
    3.0000   -2.5981    0.0000 N   0  0  0  0  0  0  0  0  0  0  0  0
    3.7500   -1.2990    0.0000 C   0  0  0  0  0  0  0  0  0  0  0  0
    3.0000    0.0000    0.0000 C   0  0  0  0  0  0  0  0  0  0  0  0
    1.5000    0.0000    0.0000 C   0  0  0  0  0  0  0  0  0  0  0  0
    0.7500   -1.2990    0.0000 C   0  0  0  0  0  0  0  0  0  0  0  0
   -0.7500   -1.2990    0.0000 C   0  0  0  0  0  0  0  0  0  0  0  0
   -1.5000   -2.5981    0.0000 I   0  0  0  0  0  0  0  0  0  0  0  0
   -1.5000    0.0000    0.0000 C   0  0  0  0  0  0  0  0  0  0  0  0
   -3.0000    0.0000    0.0000 O   0  0  0  0  0  0  0  0  0  0  0  0
   -3.7500    1.2990    0.0000 C   0  0  0  0  0  0  0  0  0  0  0  0
   -3.0000    2.5981    0.0000 C   0  0  0  0  0  0  0  0  0  0  0  0
   -3.7500    3.8971    0.0000 C   0  0  0  0  0  0  0  0  0  0  0  0
   -3.0000    5.1962    0.0000 I   0  0  0  0  0  0  0  0  0  0  0  0
   -5.2500    3.8971    0.0000 C   0  0  0  0  0  0  0  0  0  0  0  0
   -6.0000    5.1962    0.0000 O   0  0  0  0  0  0  0  0  0  0  0  0
   -6.0000    2.5981    0.0000 C   0  0  0  0  0  0  0  0  0  0  0  0
   -7.5000    2.5981    0.0000 I   0  0  0  0  0  0  0  0  0  0  0  0
   -5.2500    1.2990    0.0000 C   0  0  0  0  0  0  0  0  0  0  0  0
   -0.7500    1.2990    0.0000 C   0  0  0  0  0  0  0  0  0  0  0  0
   -1.5000    2.5981    0.0000 I   0  0  0  0  0  0  0  0  0  0  0  0
    0.7500    1.2990    0.0000 C   0  0  0  0  0  0  0  0  0  0  0  0
    5.2500   -1.2990    0.0000 C   0  0  0  0  0  0  0  0  0  0  0  0
    6.0000    0.0000    0.0000 O   0  0  0  0  0  0  0  0  0  0  0  0
    6.0000   -2.5981    0.0000 O   0  0  0  0  0  0  0  0  0  0  0  0
  2  1  1  1
  2  3  1  0
  3  4  1  0
  4  5  2  0
  5  6  1  0
  6  7  1  0
  6  8  2  0
  8  9  1  0
  9 10  1  0
 10 11  2  0
 11 12  1  0
 12 13  1  0
 12 14  2  0
 14 15  1  0
 14 16  1  0
 16 17  1  0
 16 18  2  0
  8 19  1  0
 19 20  1  0
 19 21  2  0
  2 22  1  0
 22 23  2  0
 22 24  1  0
 21  4  1  0
 18 10  1  0
M  END
$$$$
433015
     RDKit          2D

 23 24  0  0  0  0  0  0  0  0999 V2000
    3.0000   -2.5981    0.0000 N   0  0  0  0  0  0  0  0  0  0  0  0
    3.7500   -1.2990    0.0000 C   0  0  0  0  0  0  0  0  0  0  0  0
    3.0000    0.0000    0.0000 C   0  0  0  0  0  0  0  0  0  0  0  0
    1.5000    0.0000    0.0000 C   0  0  0  0  0  0  0  0  0  0  0  0
    0.7500   -1.2990    0.0000 C   0  0  0  0  0  0  0  0  0  0  0  0
   -0.7500   -1.2990    0.0000 C   0  0  0  0  0  0  0  0  0  0  0  0
   -1.5000   -2.5981    0.0000 I   0  0  0  0  0  0  0  0  0  0  0  0
   -1.5000    0.0000    0.0000 C   0  0  0  0  0  0  0  0  0  0  0  0
   -3.0000    0.0000    0.0000 O   0  0  0  0  0  0  0  0  0  0  0  0
   -3.7500    1.2990    0.0000 C   0  0  0  0  0  0  0  0  0  0  0  0
   -3.0000    2.5981    0.0000 C   0  0  0  0  0  0  0  0  0  0  0  0
   -3.7500    3.8971    0.0000 C   0  0  0  0  0  0  0  0  0  0  0  0
   -5.2500    3.8971    0.0000 C   0  0  0  0  0  0  0  0  0  0  0  0
   -6.0000    5.1962    0.0000 O   0  0  0  0  0  0  0  0  0  0  0  0
   -6.0000    2.5981    0.0000 C   0  0  0  0  0  0  0  0  0  0  0  0
   -7.5000    2.5981    0.0000 I   0  0  0  0  0  0  0  0  0  0  0  0
   -5.2500    1.2990    0.0000 C   0  0  0  0  0  0  0  0  0  0  0  0
   -0.7500    1.2990    0.0000 C   0  0  0  0  0  0  0  0  0  0  0  0
   -1.5000    2.5981    0.0000 I   0  0  0  0  0  0  0  0  0  0  0  0
    0.7500    1.2990    0.0000 C   0  0  0  0  0  0  0  0  0  0  0  0
    5.2500   -1.2990    0.0000 C   0  0  0  0  0  0  0  0  0  0  0  0
    6.0000    0.0000    0.0000 O   0  0  0  0  0  0  0  0  0  0  0  0
    6.0000   -2.5981    0.0000 O   0  0  0  0  0  0  0  0  0  0  0  0
  2  1  1  1
  2  3  1  0
  3  4  1  0
  4  5  2  0
  5  6  1  0
  6  7  1  0
  6  8  2  0
  8  9  1  0
  9 10  1  0
 10 11  2  0
 11 12  1  0
 12 13  2  0
 13 14  1  0
 13 15  1  0
 15 16  1  0
 15 17  2  0
  8 18  1  0
 18 19  1  0
 18 20  2  0
  2 21  1  0
 21 22  2  0
 21 23  1  0
 20  4  1  0
 17 10  1  0
M  END
$$$$
65415
     RDKit          2D

 19 19  0  0  0  0  0  0  0  0999 V2000
    3.0000   -2.5981    0.0000 N   0  0  0  0  0  0  0  0  0  0  0  0
    3.7500   -1.2990    0.0000 C   0  0  0  0  0  0  0  0  0  0  0  0
    3.0000    0.0000    0.0000 C   0  0  0  0  0  0  0  0  0  0  0  0
    1.5000    0.0000    0.0000 C   0  0  0  0  0  0  0  0  0  0  0  0
    0.7500   -1.2990    0.0000 C   0  0  0  0  0  0  0  0  0  0  0  0
   -0.7500   -1.2990    0.0000 C   0  0  0  0  0  0  0  0  0  0  0  0
   -1.5000    0.0000    0.0000 C   0  0  0  0  0  0  0  0  0  0  0  0
   -0.7500    1.2990    0.0000 C   0  0  0  0  0  0  0  0  0  0  0  0
    0.7500    1.2990    0.0000 C   0  0  0  0  0  0  0  0  0  0  0  0
   -3.0000    0.0000    0.0000 N   0  0  0  0  0  0  0  0  0  0  0  0
   -3.7500    1.2990    0.0000 C   0  0  0  0  0  0  0  0  0  0  0  0
   -5.2500    1.2990    0.0000 C   0  0  0  0  0  0  0  0  0  0  0  0
   -6.0000    2.5981    0.0000 Cl  0  0  0  0  0  0  0  0  0  0  0  0
   -3.7500   -1.2990    0.0000 C   0  0  0  0  0  0  0  0  0  0  0  0
   -5.2500   -1.2990    0.0000 C   0  0  0  0  0  0  0  0  0  0  0  0
   -6.0000   -2.5981    0.0000 Cl  0  0  0  0  0  0  0  0  0  0  0  0
    5.2500   -1.2990    0.0000 C   0  0  0  0  0  0  0  0  0  0  0  0
    6.0000    0.0000    0.0000 O   0  0  0  0  0  0  0  0  0  0  0  0
    6.0000   -2.5981    0.0000 O   0  0  0  0  0  0  0  0  0  0  0  0
  2  1  1  1
  2  3  1  0
  3  4  1  0
  4  5  2  0
  5  6  1  0
  6  7  2  0
  7  8  1  0
  8  9  2  0
  7 10  1  0
 10 11  1  0
 11 12  1  0
 12 13  1  0
 10 14  1  0
 14 15  1  0
 15 16  1  0
  2 17  1  0
 17 18  2  0
 17 19  1  0
  9  4  1  0
M  END
$$$$
112655
     RDKit          2D

 14 14  0  0  0  0  0  0  0  0999 V2000
    3.0000   -2.5981    0.0000 N   0  0  0  0  0  0  0  0  0  0  0  0
    3.7500   -1.2990    0.0000 C   0  0  0  0  0  0  0  0  0  0  0  0
    3.0000    0.0000    0.0000 C   0  0  0  0  0  0  0  0  0  0  0  0
    1.5000    0.0000    0.0000 C   0  0  0  0  0  0  0  0  0  0  0  0
    0.7500   -1.2990    0.0000 C   0  0  0  0  0  0  0  0  0  0  0  0
   -0.7500   -1.2990    0.0000 C   0  0  0  0  0  0  0  0  0  0  0  0
   -1.5000    0.0000    0.0000 C   0  0  0  0  0  0  0  0  0  0  0  0
   -3.0000    0.0000    0.0000 O   0  0  0  0  0  0  0  0  0  0  0  0
   -0.7500    1.2990    0.0000 C   0  0  0  0  0  0  0  0  0  0  0  0
   -1.5000    2.5981    0.0000 O   0  0  0  0  0  0  0  0  0  0  0  0
    0.7500    1.2990    0.0000 C   0  0  0  0  0  0  0  0  0  0  0  0
    5.2500   -1.2990    0.0000 C   0  0  0  0  0  0  0  0  0  0  0  0
    6.0000    0.0000    0.0000 O   0  0  0  0  0  0  0  0  0  0  0  0
    6.0000   -2.5981    0.0000 O   0  0  0  0  0  0  0  0  0  0  0  0
  2  1  1  1
  2  3  1  0
  3  4  1  0
  4  5  2  0
  5  6  1  0
  6  7  2  0
  7  8  1  0
  7  9  1  0
  9 10  1  0
  9 11  2  0
  2 12  1  0
 12 13  2  0
 12 14  1  0
 11  4  1  0
M  END
$$$$
85305
     RDKit          2D

 10  9  0  0  0  0  0  0  0  0999 V2000
   -1.2990    2.2500    0.0000 N   0  0  0  0  0  0  0  0  0  0  0  0
   -1.2990    0.7500    0.0000 C   0  0  0  0  0  0  0  0  0  0  0  0
    0.0000    0.0000    0.0000 C   0  0  0  0  0  0  0  0  0  0  0  0
    1.2990    0.7500    0.0000 C   0  0  0  0  0  0  0  0  0  0  0  0
    2.5981   -0.0000    0.0000 C   0  0  0  0  0  0  0  0  0  0  0  0
    2.5981   -1.5000    0.0000 O   0  0  0  0  0  0  0  0  0  0  0  0
    3.8971    0.7500    0.0000 N   0  0  0  0  0  0  0  0  0  0  0  0
   -2.5981    0.0000    0.0000 C   0  0  0  0  0  0  0  0  0  0  0  0
   -2.5981   -1.5000    0.0000 O   0  0  0  0  0  0  0  0  0  0  0  0
   -3.8971    0.7500    0.0000 O   0  0  0  0  0  0  0  0  0  0  0  0
  2  1  1  1
  2  3  1  0
  3  4  1  0
  4  5  1  0
  5  6  2  0
  5  7  1  0
  2  8  1  0
  8  9  2  0
  8 10  1  0
M  END
$$$$
1376097
     RDKit          2D

 15 15  0  0  0  0  0  0  0  0999 V2000
    3.0000   -2.5981    0.0000 N   0  0  0  0  0  0  0  0  0  0  0  0
    3.7500   -1.2990    0.0000 C   0  0  0  0  0  0  0  0  0  0  0  0
    3.0000    0.0000    0.0000 C   0  0  0  0  0  0  0  0  0  0  0  0
    3.7500    1.2990    0.0000 O   0  0  0  0  0  0  0  0  0  0  0  0
    1.5000    0.0000    0.0000 C   0  0  0  0  0  0  0  0  0  0  0  0
    0.7500   -1.2990    0.0000 C   0  0  0  0  0  0  0  0  0  0  0  0
   -0.7500   -1.2990    0.0000 C   0  0  0  0  0  0  0  0  0  0  0  0
   -1.5000    0.0000    0.0000 C   0  0  0  0  0  0  0  0  0  0  0  0
   -3.0000    0.0000    0.0000 O   0  0  0  0  0  0  0  0  0  0  0  0
   -0.7500    1.2990    0.0000 C   0  0  0  0  0  0  0  0  0  0  0  0
   -1.5000    2.5981    0.0000 O   0  0  0  0  0  0  0  0  0  0  0  0
    0.7500    1.2990    0.0000 C   0  0  0  0  0  0  0  0  0  0  0  0
    5.2500   -1.2990    0.0000 C   0  0  0  0  0  0  0  0  0  0  0  0
    6.0000    0.0000    0.0000 O   0  0  0  0  0  0  0  0  0  0  0  0
    6.0000   -2.5981    0.0000 O   0  0  0  0  0  0  0  0  0  0  0  0
  2  1  1  1
  2  3  1  0
  3  4  1  1
  3  5  1  0
  5  6  2  0
  6  7  1  0
  7  8  2  0
  8  9  1  0
  8 10  1  0
 10 11  1  0
 10 12  2  0
  2 13  1  0
 13 14  2  0
 13 15  1  0
 12  5  1  0
M  END
$$$$
43740
     RDKit          2D

  7  7  0  0  0  0  0  0  0  0999 V2000
    2.7760    0.0000    0.0000 N   0  0  0  0  0  0  0  0  0  0  0  0
    1.2760    0.0000    0.0000 C   0  0  0  0  0  0  0  0  0  0  0  0
    0.3943    1.2135    0.0000 C   0  0  0  0  0  0  0  0  0  0  0  0
   -1.0323    0.7500    0.0000 O   0  0  0  0  0  0  0  0  0  0  0  0
   -1.0323   -0.7500    0.0000 N   0  0  0  0  0  0  0  0  0  0  0  0
    0.3943   -1.2135    0.0000 C   0  0  0  0  0  0  0  0  0  0  0  0
    0.8578   -2.6401    0.0000 O   0  0  0  0  0  0  0  0  0  0  0  0
  2  1  1  1
  2  3  1  0
  3  4  1  0
  4  5  1  0
  5  6  1  0
  6  7  2  0
  6  2  1  0
M  END
$$$$
1616
     RDKit          2D

 30 34  0  0  0  0  0  0  0  0999 V2000
    4.0537   -7.0211    0.0000 N   0  0  0  0  0  0  0  0  0  0  0  0
    3.3037   -5.7221    0.0000 C   0  0  0  0  0  0  0  0  0  0  0  0
    2.0046   -4.9721    0.0000 C   0  0  0  0  0  0  0  0  0  0  0  0
    0.8899   -3.9684    0.0000 C   0  0  0  0  0  0  0  0  0  0  0  0
    1.5000   -2.5981    0.0000 N   0  0  0  0  0  0  0  0  0  0  0  0
    2.9918   -2.7549    0.0000 C   0  0  0  0  0  0  0  0  0  0  0  0
    3.3037   -4.2221    0.0000 C   0  0  0  0  0  0  0  0  0  0  0  0
    0.7500   -1.2990    0.0000 C   0  0  0  0  0  0  0  0  0  0  0  0
    1.5000    0.0000    0.0000 N   0  0  0  0  0  0  0  0  0  0  0  0
    0.7500    1.2990    0.0000 C   0  0  0  0  0  0  0  0  0  0  0  0
    1.5000    2.5981    0.0000 N   0  0  0  0  0  0  0  0  0  0  0  0
    0.7500    3.8971    0.0000 C   0  0  0  0  0  0  0  0  0  0  0  0
   -0.7500    3.8971    0.0000 C   0  0  0  0  0  0  0  0  0  0  0  0
   -1.5000    5.1962    0.0000 C   0  0  0  0  0  0  0  0  0  0  0  0
   -3.0000    5.1962    0.0000 O   0  0  0  0  0  0  0  0  0  0  0  0
   -0.7500    6.4952    0.0000 O   0  0  0  0  0  0  0  0  0  0  0  0
   -1.5000    2.5981    0.0000 C   0  0  0  0  0  0  0  0  0  0  0  0
   -3.0000    2.5981    0.0000 O   0  0  0  0  0  0  0  0  0  0  0  0
   -0.7500    1.2990    0.0000 C   0  0  0  0  0  0  0  0  0  0  0  0
   -1.5000    0.0000    0.0000 C   0  0  0  0  0  0  0  0  0  0  0  0
   -0.7500   -1.2990    0.0000 C   0  0  0  0  0  0  0  0  0  0  0  0
   -1.5000   -2.5981    0.0000 F   0  0  0  0  0  0  0  0  0  0  0  0
    3.0000    2.5981    0.0000 C   0  0  0  0  0  0  0  0  0  0  0  0
    3.7500    1.2990    0.0000 C   0  0  0  0  0  0  0  0  0  0  0  0
    5.2500    1.2990    0.0000 C   0  0  0  0  0  0  0  0  0  0  0  0
    6.0000    2.5981    0.0000 C   0  0  0  0  0  0  0  0  0  0  0  0
    7.5000    2.5981    0.0000 F   0  0  0  0  0  0  0  0  0  0  0  0
    5.2500    3.8971    0.0000 C   0  0  0  0  0  0  0  0  0  0  0  0
    3.7500    3.8971    0.0000 C   0  0  0  0  0  0  0  0  0  0  0  0
    3.0000    5.1962    0.0000 F   0  0  0  0  0  0  0  0  0  0  0  0
  2  1  1  6
  2  3  1  0
  3  4  1  1
  4  5  1  0
  5  6  1  0
  7  6  1  1
  5  8  1  0
  8  9  2  0
  9 10  1  0
 10 11  1  0
 11 12  1  0
 12 13  2  0
 13 14  1  0
 14 15  2  0
 14 16  1  0
 13 17  1  0
 17 18  2  0
 17 19  1  0
 19 20  1  0
 20 21  2  0
 21 22  1  0
 11 23  1  0
 23 24  2  0
 24 25  1  0
 25 26  2  0
 26 27  1  0
 26 28  1  0
 28 29  2  0
 29 30  1  0
  7  2  1  0
  7  3  1  0
 21  8  1  0
 19 10  2  0
 29 23  1  0
M  END
$$$$
360723
     RDKit          2D

 23 27  0  0  0  0  0  0  0  0999 V2000
    3.0000   -2.5981    0.0000 N   0  0  0  0  0  0  0  0  0  0  0  0
    1.5000   -2.5981    0.0000 C   0  0  0  0  0  0  0  0  0  0  0  0
    0.7500   -3.8971    0.0000 C   0  0  0  0  0  0  0  0  0  0  0  0
   -0.7500   -3.8971    0.0000 O   0  0  0  0  0  0  0  0  0  0  0  0
    1.5000   -5.1962    0.0000 N   0  0  0  0  0  0  0  0  0  0  0  0
    2.9918   -5.3529    0.0000 C   0  0  0  0  0  0  0  0  0  0  0  0
    3.3037   -6.8202    0.0000 C   0  0  0  0  0  0  0  0  0  0  0  0
    2.0046   -7.5702    0.0000 C   0  0  0  0  0  0  0  0  0  0  0  0
    0.5780   -8.0337    0.0000 C   0  0  0  0  0  0  0  0  0  0  0  0
    0.8899   -6.5665    0.0000 C   0  0  0  0  0  0  0  0  0  0  0  0
    3.9955   -4.2382    0.0000 C   0  0  0  0  0  0  0  0  0  0  0  0
    4.9992   -3.1235    0.0000 N   0  0  0  0  0  0  0  0  0  0  0  0
    0.7500   -1.2990    0.0000 C   0  0  0  0  0  0  0  0  0  0  0  0
    1.5000    0.0000    0.0000 C   0  0  0  0  0  0  0  0  0  0  0  0
    0.7500    1.2990    0.0000 C   0  0  0  0  0  0  0  0  0  0  0  0
   -0.7500    1.2990    0.0000 C   0  0  0  0  0  0  0  0  0  0  0  0
   -1.5000    0.0000    0.0000 C   0  0  0  0  0  0  0  0  0  0  0  0
    1.7010   -0.7500    0.0000 C   0  0  0  0  0  0  0  0  0  0  0  0
    3.0000   -0.0000    0.0000 C   0  0  0  0  0  0  0  0  0  0  0  0
    4.5000   -0.0000    0.0000 O   0  0  0  0  0  0  0  0  0  0  0  0
    2.2500    1.2990    0.0000 C   0  0  0  0  0  0  0  0  0  0  0  0
    2.2500   -1.2990    0.0000 C   0  0  0  0  0  0  0  0  0  0  0  0
   -0.7500   -1.2990    0.0000 C   0  0  0  0  0  0  0  0  0  0  0  0
  2  1  1  6
  2  3  1  0
  3  4  2  0
  3  5  1  0
  5  6  1  0
  6  7  1  0
  8  7  1  6
  8  9  1  0
 10  9  1  6
  6 11  1  6
 11 12  3  0
  2 13  1  0
 13 14  1  0
 14 15  1  0
 15 16  1  0
 16 17  1  0
 17 18  1  0
 18 19  1  0
 19 20  1  0
 19 21  1  0
 19 22  1  0
 17 23  1  0
 10  5  1  0
 10  8  1  0
 22 13  1  0
 23 13  1  0
 21 15  1  0
M  END
$$$$
15990
     RDKit          2D

 24 25  0  0  0  0  0  0  0  0999 V2000
    3.0000   -2.5981    0.0000 N   0  0  0  0  0  0  0  0  0  0  0  0
    3.7500   -1.2990    0.0000 C   0  0  0  0  0  0  0  0  0  0  0  0
    3.0000    0.0000    0.0000 C   0  0  0  0  0  0  0  0  0  0  0  0
    1.5000    0.0000    0.0000 C   0  0  0  0  0  0  0  0  0  0  0  0
    0.7500   -1.2990    0.0000 C   0  0  0  0  0  0  0  0  0  0  0  0
   -0.7500   -1.2990    0.0000 C   0  0  0  0  0  0  0  0  0  0  0  0
   -1.5000   -2.5981    0.0000 I   0  0  0  0  0  0  0  0  0  0  0  0
   -1.5000    0.0000    0.0000 C   0  0  0  0  0  0  0  0  0  0  0  0
   -3.0000    0.0000    0.0000 O   0  0  0  0  0  0  0  0  0  0  0  0
   -3.7500    1.2990    0.0000 C   0  0  0  0  0  0  0  0  0  0  0  0
   -3.0000    2.5981    0.0000 C   0  0  0  0  0  0  0  0  0  0  0  0
   -3.7500    3.8971    0.0000 C   0  0  0  0  0  0  0  0  0  0  0  0
   -3.0000    5.1962    0.0000 I   0  0  0  0  0  0  0  0  0  0  0  0
   -5.2500    3.8971    0.0000 C   0  0  0  0  0  0  0  0  0  0  0  0
   -6.0000    5.1962    0.0000 O   0  0  0  0  0  0  0  0  0  0  0  0
   -6.0000    2.5981    0.0000 C   0  0  0  0  0  0  0  0  0  0  0  0
   -7.5000    2.5981    0.0000 I   0  0  0  0  0  0  0  0  0  0  0  0
   -5.2500    1.2990    0.0000 C   0  0  0  0  0  0  0  0  0  0  0  0
   -0.7500    1.2990    0.0000 C   0  0  0  0  0  0  0  0  0  0  0  0
   -1.5000    2.5981    0.0000 I   0  0  0  0  0  0  0  0  0  0  0  0
    0.7500    1.2990    0.0000 C   0  0  0  0  0  0  0  0  0  0  0  0
    5.2500   -1.2990    0.0000 C   0  0  0  0  0  0  0  0  0  0  0  0
    6.0000    0.0000    0.0000 O   0  0  0  0  0  0  0  0  0  0  0  0
    6.0000   -2.5981    0.0000 O   0  0  0  0  0  0  0  0  0  0  0  0
  2  1  1  6
  2  3  1  0
  3  4  1  0
  4  5  2  0
  5  6  1  0
  6  7  1  0
  6  8  2  0
  8  9  1  0
  9 10  1  0
 10 11  2  0
 11 12  1  0
 12 13  1  0
 12 14  2  0
 14 15  1  0
 14 16  1  0
 16 17  1  0
 16 18  2  0
  8 19  1  0
 19 20  1  0
 19 21  2  0
  2 22  1  0
 22 23  2  0
 22 24  1  0
 21  4  1  0
 18 10  1  0
M  END
$$$$
705811
     RDKit          2D

 22 23  0  0  0  0  0  0  0  0999 V2000
    0.0000    2.2990    0.0000 O   0  0  0  0  0  0  0  0  0  0  0  0
    0.0000    3.2990    0.0000 Br  0  0  0  0  0  0  0  0  0  0  0  0
   -6.0000   -2.5981    0.0000 C   0  0  0  0  0  0  0  0  0  0  0  0
   -5.2500   -3.8971    0.0000 O   0  0  0  0  0  0  0  0  0  0  0  0
   -3.7500   -3.8971    0.0000 C   0  0  0  0  0  0  0  0  0  0  0  0
   -3.0000   -5.1962    0.0000 C   0  0  0  0  0  0  0  0  0  0  0  0
   -1.5000   -5.1962    0.0000 C   0  0  0  0  0  0  0  0  0  0  0  0
   -0.7500   -3.8971    0.0000 C   0  0  0  0  0  0  0  0  0  0  0  0
    0.7500   -3.8971    0.0000 C   0  0  0  0  0  0  0  0  0  0  0  0
    1.5000   -2.5981    0.0000 C   0  0  0  0  0  0  0  0  0  0  0  0
    0.7500   -1.2990    0.0000 C   0  0  0  0  0  0  0  0  0  0  0  0
    1.5000    0.0000    0.0000 C   0  0  0  0  0  0  0  0  0  0  0  0
    0.7500    1.2990    0.0000 C   0  0  0  0  0  0  0  0  0  0  0  0
   -0.7500    1.2990    0.0000 C   0  0  0  0  0  0  0  0  0  0  0  0
   -1.5000    0.0000    0.0000 C   0  0  0  0  0  0  0  0  0  0  0  0
   -0.7500   -1.2990    0.0000 C   0  0  0  0  0  0  0  0  0  0  0  0
    0.3500   -0.6062    0.0000 C   0  0  0  0  0  0  0  0  0  0  0  0
    1.1500   -0.6062    0.0000 C   0  0  0  0  0  0  0  0  0  0  0  0
    1.5500   -1.2990    0.0000 N   0  0  0  0  0  0  0  0  0  0  0  0
    3.7500   -1.2990    0.0000 C   0  0  0  0  0  0  0  0  0  0  0  0
   -1.5000   -2.5981    0.0000 C   0  0  0  0  0  0  0  0  0  0  0  0
   -3.0000   -2.5981    0.0000 C   0  0  0  0  0  0  0  0  0  0  0  0
  3  4  1  0
  4  5  1  0
  5  6  2  0
  6  7  1  0
  7  8  2  0
  8  9  1  0
 10  9  1  1
 10 11  1  0
 11 12  1  6
 12 13  1  0
 13 14  1  0
 14 15  1  0
 16 15  1  6
 16 17  1  0
 17 18  1  0
 18 19  1  0
 19 20  1  0
 16 21  1  0
 21 22  2  0
 22  5  1  0
 21  8  1  0
 19 10  1  0
 16 11  1  0
M  END
$$$$
674289
     RDKit          2D

 19 18  0  0  0  0  0  0  0  0999 V2000
    0.0000    2.2990    0.0000 O   0  0  0  0  0  0  0  0  0  0  0  0
    5.2500   -3.8971    0.0000 C   0  0  0  0  0  0  0  0  0  0  0  0
    3.7500   -3.8971    0.0000 C   0  0  0  0  0  0  0  0  0  0  0  0
    3.0000   -2.5981    0.0000 N   0  0  0  0  0  0  0  0  0  0  0  0
    3.7500   -1.2990    0.0000 C   0  0  0  0  0  0  0  0  0  0  0  0
    5.2500   -1.2990    0.0000 N   0  0  0  0  0  0  0  0  0  0  0  0
    6.0000   -2.5981    0.0000 C   0  0  0  0  0  0  0  0  0  0  0  0
    6.7500   -3.8971    0.0000 N   0  0  0  0  0  0  0  0  0  0  0  0
    3.0000    0.0000    0.0000 N   0  0  0  0  0  0  0  0  0  0  0  0
    1.5000    0.0000    0.0000 C   0  0  0  0  0  0  0  0  0  0  0  0
    0.7500   -1.2990    0.0000 C   0  0  0  0  0  0  0  0  0  0  0  0
   -0.7500   -1.2990    0.0000 C   0  0  0  0  0  0  0  0  0  0  0  0
   -1.5000    0.0000    0.0000 N   0  0  0  0  0  0  0  0  0  0  0  0
   -0.7500    1.2990    0.0000 C   0  0  0  0  0  0  0  0  0  0  0  0
    0.7500    1.2990    0.0000 C   0  0  0  0  0  0  0  0  0  0  0  0
    3.0000   -5.1962    0.0000 C   0  0  0  0  0  0  0  0  0  0  0  0
    4.2990   -5.9462    0.0000 C   0  0  0  0  0  0  0  0  0  0  0  0
    1.7010   -4.4462    0.0000 C   0  0  0  0  0  0  0  0  0  0  0  0
    2.2500   -6.4952    0.0000 C   0  0  0  0  0  0  0  0  0  0  0  0
  2  3  1  0
  3  4  1  0
  4  5  1  0
  5  6  2  0
  6  7  1  0
  7  8  3  0
  5  9  1  0
  9 10  1  0
 10 11  2  0
 11 12  1  0
 12 13  2  0
 13 14  1  0
 14 15  2  0
  3 16  1  0
 16 17  1  0
 16 18  1  0
 16 19  1  0
 15 10  1  0
M  END
$$$$
674495
     RDKit          2D

 25 26  0  0  0  0  0  0  0  0999 V2000
    0.0000    6.8220    0.0000 O   0  0  0  0  0  0  0  0  0  0  0  0
    3.0000    0.0000    0.0000 C   0  0  0  0  0  0  0  0  0  0  0  0
    1.5000    0.0000    0.0000 C   0  0  0  0  0  0  0  0  0  0  0  0
    0.7500   -1.2990    0.0000 C   0  0  0  0  0  0  0  0  0  0  0  0
   -0.7500   -1.2990    0.0000 N   0  0  0  0  0  0  0  0  0  0  0  0
   -1.5000    0.0000    0.0000 C   0  0  0  0  0  0  0  0  0  0  0  0
   -0.7500    1.2990    0.0000 S   0  0  0  0  0  0  0  0  0  0  0  0
    0.7500    1.2990    0.0000 C   0  0  0  0  0  0  0  0  0  0  0  0
   -2.7990   -0.7500    0.0000 C   0  0  0  0  0  0  0  0  0  0  0  0
   -4.2479   -0.3618    0.0000 N   0  0  0  0  0  0  0  0  0  0  0  0
   -4.6362    1.0871    0.0000 C   0  0  0  0  0  0  0  0  0  0  0  0
   -3.5755    2.1478    0.0000 O   0  0  0  0  0  0  0  0  0  0  0  0
   -6.0850    1.4753    0.0000 C   0  0  0  0  0  0  0  0  0  0  0  0
   -7.1457    0.4147    0.0000 N   0  0  0  0  0  0  0  0  0  0  0  0
   -6.4733    2.9242    0.0000 C   0  0  0  0  0  0  0  0  0  0  0  0
   -5.4126    3.9849    0.0000 C   0  0  0  0  0  0  0  0  0  0  0  0
   -5.8008    5.4338    0.0000 C   0  0  0  0  0  0  0  0  0  0  0  0
   -7.2497    5.8220    0.0000 C   0  0  0  0  0  0  0  0  0  0  0  0
   -8.3104    4.7614    0.0000 C   0  0  0  0  0  0  0  0  0  0  0  0
   -7.9222    3.3125    0.0000 C   0  0  0  0  0  0  0  0  0  0  0  0
   -2.0490   -2.0490    0.0000 C   0  0  0  0  0  0  0  0  0  0  0  0
   -2.4373   -3.4979    0.0000 O   0  0  0  0  0  0  0  0  0  0  0  0
    1.5000   -2.5981    0.0000 C   0  0  0  0  0  0  0  0  0  0  0  0
    3.0000   -2.5981    0.0000 O   0  0  0  0  0  0  0  0  0  0  0  0
    0.7500   -3.8971    0.0000 O   0  0  0  0  0  0  0  0  0  0  0  0
  2  3  1  0
  3  4  2  0
  4  5  1  0
  5  6  1  0
  6  7  1  1
  7  8  1  0
  6  9  1  0
  9 10  1  1
 10 11  1  0
 11 12  2  0
 11 13  1  0
 13 14  1  6
 13 15  1  0
 15 16  2  0
 16 17  1  0
 17 18  2  0
 18 19  1  0
 19 20  2  0
  9 21  1  0
 21 22  2  0
  4 23  1  0
 23 24  2  0
 23 25  1  0
  8  3  1  0
 21  5  1  0
 20 15  1  0
M  END
$$$$
675130
     RDKit          2D

 63 66  0  0  0  0  0  0  0  0999 V2000
    4.0000    0.0000    0.0000 O   0  0  0  0  0  0  0  0  0  0  0  0
    3.0000    0.0000    0.0000 C   0  0  0  0  0  0  0  0  0  0  0  0
    1.5000    0.0000    0.0000 C   0  0  0  0  0  0  0  0  0  0  0  0
    0.7500   -1.2990    0.0000 C   0  0  0  0  0  0  0  0  0  0  0  0
   -0.7500   -1.2990    0.0000 C   0  0  0  0  0  0  0  0  0  0  0  0
   -1.5000    0.0000    0.0000 C   0  0  0  0  0  0  0  0  0  0  0  0
   -0.7500    1.2990    0.0000 C   0  0  0  0  0  0  0  0  0  0  0  0
    0.7500    1.2990    0.0000 C   0  0  0  0  0  0  0  0  0  0  0  0
   -3.0000    0.0000    0.0000 S   0  0  0  0  0  0  0  0  0  0  0  0
   -3.0000    1.5000    0.0000 O   0  0  0  0  0  0  0  0  0  0  0  0
   -3.0000   -1.5000    0.0000 O   0  0  0  0  0  0  0  0  0  0  0  0
   -4.5000    0.0000    0.0000 O   0  0  0  0  0  0  0  0  0  0  0  0
    3.0000    4.0000    0.0000 C   0  0  0  0  0  0  0  0  0  0  0  0
    1.5000    4.0000    0.0000 C   0  0  0  0  0  0  0  0  0  0  0  0
    0.7500    2.7010    0.0000 C   0  0  0  0  0  0  0  0  0  0  0  0
   -0.7500    2.7010    0.0000 C   0  0  0  0  0  0  0  0  0  0  0  0
   -1.5000    4.0000    0.0000 C   0  0  0  0  0  0  0  0  0  0  0  0
   -0.7500    5.2990    0.0000 C   0  0  0  0  0  0  0  0  0  0  0  0
    0.7500    5.2990    0.0000 C   0  0  0  0  0  0  0  0  0  0  0  0
   -3.0000    4.0000    0.0000 S   0  0  0  0  0  0  0  0  0  0  0  0
   -3.0000    5.5000    0.0000 O   0  0  0  0  0  0  0  0  0  0  0  0
   -3.0000    2.5000    0.0000 O   0  0  0  0  0  0  0  0  0  0  0  0
   -4.5000    4.0000    0.0000 O   0  0  0  0  0  0  0  0  0  0  0  0
    9.0985    7.2602    0.0000 C   0  0  0  0  0  0  0  0  0  0  0  0
    7.7282    7.8703    0.0000 S   0  0  0  0  0  0  0  0  0  0  0  0
    8.3383    9.2406    0.0000 O   0  0  0  0  0  0  0  0  0  0  0  0
    7.1181    6.5000    0.0000 O   0  0  0  0  0  0  0  0  0  0  0  0
    6.3579    8.4804    0.0000 C   0  0  0  0  0  0  0  0  0  0  0  0
    6.2011    9.9722    0.0000 C   0  0  0  0  0  0  0  0  0  0  0  0
    4.8308   10.5823    0.0000 N   0  0  0  0  0  0  0  0  0  0  0  0
    4.6740   12.0741    0.0000 C   0  0  0  0  0  0  0  0  0  0  0  0
    3.3037   12.6842    0.0000 C   0  0  0  0  0  0  0  0  0  0  0  0
    2.9918   14.1514    0.0000 O   0  0  0  0  0  0  0  0  0  0  0  0
    1.5000   14.3082    0.0000 C   0  0  0  0  0  0  0  0  0  0  0  0
    0.8899   12.9379    0.0000 C   0  0  0  0  0  0  0  0  0  0  0  0
    2.0046   11.9342    0.0000 C   0  0  0  0  0  0  0  0  0  0  0  0
    0.7500   15.6073    0.0000 C   0  0  0  0  0  0  0  0  0  0  0  0
    1.5000   16.9063    0.0000 C   0  0  0  0  0  0  0  0  0  0  0  0
    0.7500   18.2053    0.0000 C   0  0  0  0  0  0  0  0  0  0  0  0
   -0.7500   18.2053    0.0000 C   0  0  0  0  0  0  0  0  0  0  0  0
   -1.5000   19.5044    0.0000 N   0  0  0  0  0  0  0  0  0  0  0  0
   -3.0000   19.5044    0.0000 C   0  0  0  0  0  0  0  0  0  0  0  0
   -3.7500   18.2053    0.0000 N   0  0  0  0  0  0  0  0  0  0  0  0
   -3.0000   16.9063    0.0000 C   0  0  0  0  0  0  0  0  0  0  0  0
   -3.7500   15.6073    0.0000 N   0  0  0  0  0  0  0  0  0  0  0  0
   -5.2500   15.6073    0.0000 C   0  0  0  0  0  0  0  0  0  0  0  0
   -6.0000   16.9063    0.0000 C   0  0  0  0  0  0  0  0  0  0  0  0
   -7.5000   16.9063    0.0000 C   0  0  0  0  0  0  0  0  0  0  0  0
   -8.2500   15.6073    0.0000 C   0  0  0  0  0  0  0  0  0  0  0  0
   -9.7500   15.6073    0.0000 O   0  0  0  0  0  0  0  0  0  0  0  0
  -10.5000   16.9063    0.0000 C   0  0  0  0  0  0  0  0  0  0  0  0
  -12.0000   16.9063    0.0000 C   0  0  0  0  0  0  0  0  0  0  0  0
  -12.7500   18.2053    0.0000 C   0  0  0  0  0  0  0  0  0  0  0  0
  -14.2500   18.2053    0.0000 C   0  0  0  0  0  0  0  0  0  0  0  0
  -15.0000   16.9063    0.0000 C   0  0  0  0  0  0  0  0  0  0  0  0
  -14.2500   15.6073    0.0000 C   0  0  0  0  0  0  0  0  0  0  0  0
  -15.0000   14.3082    0.0000 F   0  0  0  0  0  0  0  0  0  0  0  0
  -12.7500   15.6073    0.0000 C   0  0  0  0  0  0  0  0  0  0  0  0
   -7.5000   14.3082    0.0000 C   0  0  0  0  0  0  0  0  0  0  0  0
   -8.2500   13.0092    0.0000 Cl  0  0  0  0  0  0  0  0  0  0  0  0
   -6.0000   14.3082    0.0000 C   0  0  0  0  0  0  0  0  0  0  0  0
   -1.5000   16.9063    0.0000 C   0  0  0  0  0  0  0  0  0  0  0  0
   -0.7500   15.6073    0.0000 C   0  0  0  0  0  0  0  0  0  0  0  0
  2  3  1  0
  3  4  2  0
  4  5  1  0
  5  6  2  0
  6  7  1  0
  7  8  2  0
  6  9  1  0
  9 10  2  0
  9 11  2  0
  9 12  1  0
 13 14  1  0
 14 15  2  0
 15 16  1  0
 16 17  2  0
 17 18  1  0
 18 19  2  0
 17 20  1  0
 20 21  2  0
 20 22  2  0
 20 23  1  0
 24 25  1  0
 25 26  2  0
 25 27  2  0
 25 28  1  0
 28 29  1  0
 29 30  1  0
 30 31  1  0
 31 32  1  0
 32 33  1  0
 33 34  1  0
 34 35  2  0
 35 36  1  0
 34 37  1  0
 37 38  2  0
 38 39  1  0
 39 40  2  0
 40 41  1  0
 41 42  2  0
 42 43  1  0
 43 44  2  0
 44 45  1  0
 45 46  1  0
 46 47  2  0
 47 48  1  0
 48 49  2  0
 49 50  1  0
 50 51  1  0
 51 52  1  0
 52 53  2  0
 53 54  1  0
 54 55  2  0
 55 56  1  0
 56 57  1  0
 56 58  2  0
 49 59  1  0
 59 60  1  0
 59 61  2  0
 44 62  1  0
 62 63  2  0
  8  3  1  0
 19 14  1  0
 36 32  2  0
 63 37  1  0
 62 40  1  0
 61 46  1  0
 58 52  1  0
M  END
$$$$
1376111
     RDKit          2D

 63 68  0  0  0  0  0  0  0  0999 V2000
    0.0000   13.2383    0.0000 O   0  0  0  0  0  0  0  0  0  0  0  0
    3.0000    0.0000    0.0000 C   0  0  0  0  0  0  0  0  0  0  0  0
    1.5000    0.0000    0.0000 C   0  0  0  0  0  0  0  0  0  0  0  0
    0.7500   -1.2990    0.0000 C   0  0  0  0  0  0  0  0  0  0  0  0
   -0.7500   -1.2990    0.0000 C   0  0  0  0  0  0  0  0  0  0  0  0
   -1.5000    0.0000    0.0000 C   0  0  0  0  0  0  0  0  0  0  0  0
   -0.7500    1.2990    0.0000 C   0  0  0  0  0  0  0  0  0  0  0  0
    0.7500    1.2990    0.0000 C   0  0  0  0  0  0  0  0  0  0  0  0
    1.5000    2.5981    0.0000 C   0  0  0  0  0  0  0  0  0  0  0  0
    0.7500    3.8971    0.0000 C   0  0  0  0  0  0  0  0  0  0  0  0
   -0.7418    4.0539    0.0000 C   0  0  0  0  0  0  0  0  0  0  0  0
   -1.0537    5.5211    0.0000 C   0  0  0  0  0  0  0  0  0  0  0  0
    0.2454    6.2711    0.0000 C   0  0  0  0  0  0  0  0  0  0  0  0
    1.3601    5.2674    0.0000 S   0  0  0  0  0  0  0  0  0  0  0  0
    0.4022    7.7629    0.0000 C   0  0  0  0  0  0  0  0  0  0  0  0
    1.7725    8.3730    0.0000 C   0  0  0  0  0  0  0  0  0  0  0  0
    1.9293    9.8648    0.0000 C   0  0  0  0  0  0  0  0  0  0  0  0
    0.7158   10.7465    0.0000 C   0  0  0  0  0  0  0  0  0  0  0  0
    0.8726   12.2383    0.0000 F   0  0  0  0  0  0  0  0  0  0  0  0
   -0.6546   10.1364    0.0000 C   0  0  0  0  0  0  0  0  0  0  0  0
   -0.8113    8.6446    0.0000 C   0  0  0  0  0  0  0  0  0  0  0  0
   -3.0000    0.0000    0.0000 C   0  0  0  0  0  0  0  0  0  0  0  0
   -3.7500    1.2990    0.0000 O   0  0  0  0  0  0  0  0  0  0  0  0
   -5.2500    1.2990    0.0000 C   0  0  0  0  0  0  0  0  0  0  0  0
   -6.0000    2.5981    0.0000 C   0  0  0  0  0  0  0  0  0  0  0  0
   -5.2500    3.8971    0.0000 O   0  0  0  0  0  0  0  0  0  0  0  0
   -6.0000    0.0000    0.0000 C   0  0  0  0  0  0  0  0  0  0  0  0
   -7.5000    0.0000    0.0000 O   0  0  0  0  0  0  0  0  0  0  0  0
   -5.2500   -1.2990    0.0000 C   0  0  0  0  0  0  0  0  0  0  0  0
   -6.0000   -2.5981    0.0000 O   0  0  0  0  0  0  0  0  0  0  0  0
   -3.7500   -1.2990    0.0000 C   0  0  0  0  0  0  0  0  0  0  0  0
   -3.0000   -2.5981    0.0000 O   0  0  0  0  0  0  0  0  0  0  0  0
   14.5000    0.0000    0.0000 C   0  0  0  0  0  0  0  0  0  0  0  0
   13.0000    0.0000    0.0000 C   0  0  0  0  0  0  0  0  0  0  0  0
   12.2500   -1.2990    0.0000 C   0  0  0  0  0  0  0  0  0  0  0  0
   10.7500   -1.2990    0.0000 C   0  0  0  0  0  0  0  0  0  0  0  0
   10.0000    0.0000    0.0000 C   0  0  0  0  0  0  0  0  0  0  0  0
   10.7500    1.2990    0.0000 C   0  0  0  0  0  0  0  0  0  0  0  0
   12.2500    1.2990    0.0000 C   0  0  0  0  0  0  0  0  0  0  0  0
   13.0000    2.5981    0.0000 C   0  0  0  0  0  0  0  0  0  0  0  0
   12.2500    3.8971    0.0000 C   0  0  0  0  0  0  0  0  0  0  0  0
   10.7582    4.0539    0.0000 C   0  0  0  0  0  0  0  0  0  0  0  0
   10.4463    5.5211    0.0000 C   0  0  0  0  0  0  0  0  0  0  0  0
   11.7454    6.2711    0.0000 C   0  0  0  0  0  0  0  0  0  0  0  0
   12.8601    5.2674    0.0000 S   0  0  0  0  0  0  0  0  0  0  0  0
   11.9022    7.7629    0.0000 C   0  0  0  0  0  0  0  0  0  0  0  0
   13.2725    8.3730    0.0000 C   0  0  0  0  0  0  0  0  0  0  0  0
   13.4293    9.8648    0.0000 C   0  0  0  0  0  0  0  0  0  0  0  0
   12.2158   10.7465    0.0000 C   0  0  0  0  0  0  0  0  0  0  0  0
   12.3726   12.2383    0.0000 F   0  0  0  0  0  0  0  0  0  0  0  0
   10.8454   10.1364    0.0000 C   0  0  0  0  0  0  0  0  0  0  0  0
   10.6887    8.6446    0.0000 C   0  0  0  0  0  0  0  0  0  0  0  0
    8.5000    0.0000    0.0000 C   0  0  0  0  0  0  0  0  0  0  0  0
    7.7500    1.2990    0.0000 O   0  0  0  0  0  0  0  0  0  0  0  0
    6.2500    1.2990    0.0000 C   0  0  0  0  0  0  0  0  0  0  0  0
    5.5000    2.5981    0.0000 C   0  0  0  0  0  0  0  0  0  0  0  0
    6.2500    3.8971    0.0000 O   0  0  0  0  0  0  0  0  0  0  0  0
    5.5000    0.0000    0.0000 C   0  0  0  0  0  0  0  0  0  0  0  0
    4.0000    0.0000    0.0000 O   0  0  0  0  0  0  0  0  0  0  0  0
    6.2500   -1.2990    0.0000 C   0  0  0  0  0  0  0  0  0  0  0  0
    5.5000   -2.5981    0.0000 O   0  0  0  0  0  0  0  0  0  0  0  0
    7.7500   -1.2990    0.0000 C   0  0  0  0  0  0  0  0  0  0  0  0
    8.5000   -2.5981    0.0000 O   0  0  0  0  0  0  0  0  0  0  0  0
  2  3  1  0
  3  4  2  0
  4  5  1  0
  5  6  2  0
  6  7  1  0
  7  8  2  0
  8  9  1  0
  9 10  1  0
 10 11  2  0
 11 12  1  0
 12 13  2  0
 13 14  1  0
 13 15  1  0
 15 16  2  0
 16 17  1  0
 17 18  2  0
 18 19  1  0
 18 20  1  0
 20 21  2  0
 22  6  1  1
 22 23  1  0
 23 24  1  0
 24 25  1  1
 25 26  1  0
 24 27  1  0
 27 28  1  6
 27 29  1  0
 29 30  1  1
 29 31  1  0
 31 32  1  6
 33 34  1  0
 34 35  2  0
 35 36  1  0
 36 37  2  0
 37 38  1  0
 38 39  2  0
 39 40  1  0
 40 41  1  0
 41 42  2  0
 42 43  1  0
 43 44  2  0
 44 45  1  0
 44 46  1  0
 46 47  2  0
 47 48  1  0
 48 49  2  0
 49 50  1  0
 49 51  1  0
 51 52  2  0
 53 37  1  1
 53 54  1  0
 54 55  1  0
 55 56  1  1
 56 57  1  0
 55 58  1  0
 58 59  1  6
 58 60  1  0
 60 61  1  1
 60 62  1  0
 62 63  1  6
  8  3  1  0
 14 10  1  0
 21 15  1  0
 31 22  1  0
 39 34  1  0
 45 41  1  0
 52 46  1  0
 62 53  1  0
M  END
$$$$
1674197
     RDKit          2D

 28 29  0  0  0  0  0  0  0  0999 V2000
    0.0000    8.2709    0.0000 O   0  0  0  0  0  0  0  0  0  0  0  0
    5.2500   -1.2990    0.0000 C   0  0  0  0  0  0  0  0  0  0  0  0
    3.7500   -1.2990    0.0000 C   0  0  0  0  0  0  0  0  0  0  0  0
    3.0000    0.0000    0.0000 C   0  0  0  0  0  0  0  0  0  0  0  0
    1.5000    0.0000    0.0000 C   0  0  0  0  0  0  0  0  0  0  0  0
    0.7500   -1.2990    0.0000 C   0  0  0  0  0  0  0  0  0  0  0  0
   -0.7500   -1.2990    0.0000 N   0  0  0  0  0  0  0  0  0  0  0  0
   -1.5000    0.0000    0.0000 C   0  0  0  0  0  0  0  0  0  0  0  0
   -0.7500    1.2990    0.0000 S   0  0  0  0  0  0  0  0  0  0  0  0
    0.7500    1.2990    0.0000 C   0  0  0  0  0  0  0  0  0  0  0  0
   -2.7990   -0.7500    0.0000 C   0  0  0  0  0  0  0  0  0  0  0  0
   -4.2479   -0.3618    0.0000 N   0  0  0  0  0  0  0  0  0  0  0  0
   -4.6362    1.0871    0.0000 C   0  0  0  0  0  0  0  0  0  0  0  0
   -3.5755    2.1478    0.0000 O   0  0  0  0  0  0  0  0  0  0  0  0
   -6.0850    1.4753    0.0000 C   0  0  0  0  0  0  0  0  0  0  0  0
   -7.1457    0.4147    0.0000 N   0  0  0  0  0  0  0  0  0  0  0  0
   -6.4733    2.9242    0.0000 C   0  0  0  0  0  0  0  0  0  0  0  0
   -5.4126    3.9849    0.0000 C   0  0  0  0  0  0  0  0  0  0  0  0
   -5.8008    5.4338    0.0000 C   0  0  0  0  0  0  0  0  0  0  0  0
   -7.2497    5.8220    0.0000 C   0  0  0  0  0  0  0  0  0  0  0  0
   -7.6380    7.2709    0.0000 O   0  0  0  0  0  0  0  0  0  0  0  0
   -8.3104    4.7614    0.0000 C   0  0  0  0  0  0  0  0  0  0  0  0
   -7.9222    3.3125    0.0000 C   0  0  0  0  0  0  0  0  0  0  0  0
   -2.0490   -2.0490    0.0000 C   0  0  0  0  0  0  0  0  0  0  0  0
   -2.4373   -3.4979    0.0000 O   0  0  0  0  0  0  0  0  0  0  0  0
    1.5000   -2.5981    0.0000 C   0  0  0  0  0  0  0  0  0  0  0  0
    3.0000   -2.5981    0.0000 O   0  0  0  0  0  0  0  0  0  0  0  0
    0.7500   -3.8971    0.0000 O   0  0  0  0  0  0  0  0  0  0  0  0
  2  3  1  0
  3  4  2  3
  4  5  1  0
  5  6  2  0
  6  7  1  0
  7  8  1  0
  8  9  1  1
  9 10  1  0
  8 11  1  0
 11 12  1  1
 12 13  1  0
 13 14  2  0
 13 15  1  0
 15 16  1  6
 15 17  1  0
 17 18  2  0
 18 19  1  0
 19 20  2  0
 20 21  1  0
 20 22  1  0
 22 23  2  0
 11 24  1  0
 24 25  2  0
  6 26  1  0
 26 27  2  0
 26 28  1  0
 10  5  1  0
 24  7  1  0
 23 17  1  0
M  END
$$$$
1376072
     RDKit          2D

 34 34  0  0  0  0  0  0  0  0999 V2000
    6.2500    0.0000    0.0000 O   0  0  0  0  0  0  0  0  0  0  0  0
    5.2500   -1.2990    0.0000 C   0  0  0  0  0  0  0  0  0  0  0  0
    3.7500   -1.2990    0.0000 C   0  0  0  0  0  0  0  0  0  0  0  0
    3.0000    0.0000    0.0000 O   0  0  0  0  0  0  0  0  0  0  0  0
    1.5000    0.0000    0.0000 C   0  0  0  0  0  0  0  0  0  0  0  0
    0.7500   -1.2990    0.0000 C   0  0  0  0  0  0  0  0  0  0  0  0
   -0.7500   -1.2990    0.0000 C   0  0  0  0  0  0  0  0  0  0  0  0
   -1.5000    0.0000    0.0000 C   0  0  0  0  0  0  0  0  0  0  0  0
   -3.0000    0.0000    0.0000 C   0  0  0  0  0  0  0  0  0  0  0  0
   -3.7500    1.2990    0.0000 C   0  0  0  0  0  0  0  0  0  0  0  0
   -3.0000    2.5981    0.0000 C   0  0  0  0  0  0  0  0  0  0  0  0
   -3.7500    3.8971    0.0000 C   0  0  0  0  0  0  0  0  0  0  0  0
   -5.2500    3.8971    0.0000 C   0  0  0  0  0  0  0  0  0  0  0  0
   -6.0000    2.5981    0.0000 C   0  0  0  0  0  0  0  0  0  0  0  0
   -5.2500    1.2990    0.0000 C   0  0  0  0  0  0  0  0  0  0  0  0
   -6.0000    0.0000    0.0000 Cl  0  0  0  0  0  0  0  0  0  0  0  0
   -3.0000    5.1962    0.0000 C   0  0  0  0  0  0  0  0  0  0  0  0
   -1.5000    5.1962    0.0000 O   0  0  0  0  0  0  0  0  0  0  0  0
   -0.7500    6.4952    0.0000 C   0  0  0  0  0  0  0  0  0  0  0  0
    0.7500    6.4952    0.0000 C   0  0  0  0  0  0  0  0  0  0  0  0
    1.5000    5.1962    0.0000 O   0  0  0  0  0  0  0  0  0  0  0  0
   -1.5000    7.7942    0.0000 C   0  0  0  0  0  0  0  0  0  0  0  0
   -0.7500    9.0933    0.0000 O   0  0  0  0  0  0  0  0  0  0  0  0
   -3.0000    7.7942    0.0000 C   0  0  0  0  0  0  0  0  0  0  0  0
   -3.7500    9.0933    0.0000 O   0  0  0  0  0  0  0  0  0  0  0  0
   -3.7500    6.4952    0.0000 C   0  0  0  0  0  0  0  0  0  0  0  0
   -5.2500    6.4952    0.0000 O   0  0  0  0  0  0  0  0  0  0  0  0
   -0.7500    1.2990    0.0000 C   0  0  0  0  0  0  0  0  0  0  0  0
    0.7500    1.2990    0.0000 C   0  0  0  0  0  0  0  0  0  0  0  0
    0.0000   10.0933    0.0000 C   0  0  0  0  0  0  0  0  0  0  0  0
    1.2990   10.8433    0.0000 C   0  0  0  0  0  0  0  0  0  0  0  0
    1.2990   12.3433    0.0000 O   0  0  0  0  0  0  0  0  0  0  0  0
    2.5981   10.0933    0.0000 C   0  0  0  0  0  0  0  0  0  0  0  0
    3.8971   10.8433    0.0000 O   0  0  0  0  0  0  0  0  0  0  0  0
  2  3  1  0
  3  4  1  0
  4  5  1  0
  5  6  2  0
  6  7  1  0
  7  8  2  0
  8  9  1  0
  9 10  1  0
 10 11  2  0
 11 12  1  0
 12 13  2  0
 13 14  1  0
 14 15  2  0
 15 16  1  0
 17 12  1  1
 17 18  1  0
 18 19  1  0
 19 20  1  1
 20 21  1  0
 19 22  1  0
 22 23  1  6
 22 24  1  0
 24 25  1  1
 24 26  1  0
 26 27  1  6
  8 28  1  0
 28 29  2  0
 31 30  1  6
 31 32  1  0
 31 33  1  0
 33 34  1  0
 29  5  1  0
 15 10  1  0
 26 17  1  0
M  END
$$$$
674333
     RDKit          2D

 29 29  0  0  0  0  0  0  0  0999 V2000
    4.3037    0.0000    0.0000 O   0  0  0  0  0  0  0  0  0  0  0  0
    5.3037    0.0000    0.0000 Cl  0  0  0  0  0  0  0  0  0  0  0  0
   -5.2500   -9.0933    0.0000 C   0  0  0  0  0  0  0  0  0  0  0  0
   -3.7500   -9.0933    0.0000 C   0  0  0  0  0  0  0  0  0  0  0  0
   -3.0000  -10.3923    0.0000 C   0  0  0  0  0  0  0  0  0  0  0  0
   -3.0000   -7.7942    0.0000 C   0  0  0  0  0  0  0  0  0  0  0  0
   -1.5000   -7.7942    0.0000 O   0  0  0  0  0  0  0  0  0  0  0  0
   -0.7500   -6.4952    0.0000 C   0  0  0  0  0  0  0  0  0  0  0  0
    0.7500   -6.4952    0.0000 C   0  0  0  0  0  0  0  0  0  0  0  0
    1.5000   -5.1962    0.0000 C   0  0  0  0  0  0  0  0  0  0  0  0
    0.7500   -3.8971    0.0000 N   0  0  0  0  0  0  0  0  0  0  0  0
    1.5000   -2.5981    0.0000 C   0  0  0  0  0  0  0  0  0  0  0  0
    0.7500   -1.2990    0.0000 C   0  0  0  0  0  0  0  0  0  0  0  0
    1.5000    0.0000    0.0000 C   0  0  0  0  0  0  0  0  0  0  0  0
    0.7500    1.2990    0.0000 C   0  0  0  0  0  0  0  0  0  0  0  0
   -0.7500    1.2990    0.0000 C   0  0  0  0  0  0  0  0  0  0  0  0
   -1.5000    0.0000    0.0000 C   0  0  0  0  0  0  0  0  0  0  0  0
   -0.7500   -1.2990    0.0000 C   0  0  0  0  0  0  0  0  0  0  0  0
   -0.7500   -3.8971    0.0000 C   0  0  0  0  0  0  0  0  0  0  0  0
   -1.5000   -2.5981    0.0000 C   0  0  0  0  0  0  0  0  0  0  0  0
   -3.0000   -2.5981    0.0000 C   0  0  0  0  0  0  0  0  0  0  0  0
   -3.7500   -3.8971    0.0000 C   0  0  0  0  0  0  0  0  0  0  0  0
   -3.0000   -5.1962    0.0000 C   0  0  0  0  0  0  0  0  0  0  0  0
   -1.5000   -5.1962    0.0000 C   0  0  0  0  0  0  0  0  0  0  0  0
    1.5000   -7.7942    0.0000 N   0  0  0  0  0  0  0  0  0  0  0  0
    2.9918   -7.9510    0.0000 C   0  0  0  0  0  0  0  0  0  0  0  0
    3.3037   -9.4182    0.0000 C   0  0  0  0  0  0  0  0  0  0  0  0
    2.0046  -10.1682    0.0000 C   0  0  0  0  0  0  0  0  0  0  0  0
    0.8899   -9.1645    0.0000 C   0  0  0  0  0  0  0  0  0  0  0  0
  3  4  1  0
  4  5  1  0
  4  6  1  0
  6  7  1  0
  7  8  1  0
  8  9  1  0
  9 10  1  0
 10 11  1  0
 11 12  1  0
 12 13  1  0
 13 14  2  0
 14 15  1  0
 15 16  2  0
 16 17  1  0
 17 18  2  0
 11 19  1  0
 19 20  2  0
 20 21  1  0
 21 22  2  0
 22 23  1  0
 23 24  2  0
  9 25  1  0
 25 26  1  0
 26 27  1  0
 27 28  1  0
 28 29  1  0
 18 13  1  0
 24 19  1  0
 29 25  1  0
M  END
$$$$
674317
     RDKit          2D

 26 26  0  0  0  0  0  0  0  0999 V2000
    0.0000    6.8220    0.0000 O   0  0  0  0  0  0  0  0  0  0  0  0
    0.0000    7.8220    0.0000 Cl  0  0  0  0  0  0  0  0  0  0  0  0
    3.0000    0.0000    0.0000 C   0  0  0  0  0  0  0  0  0  0  0  0
    1.5000    0.0000    0.0000 C   0  0  0  0  0  0  0  0  0  0  0  0
    0.7500   -1.2990    0.0000 C   0  0  0  0  0  0  0  0  0  0  0  0
   -0.7500   -1.2990    0.0000 N   0  0  0  0  0  0  0  0  0  0  0  0
   -1.5000    0.0000    0.0000 C   0  0  0  0  0  0  0  0  0  0  0  0
   -0.7500    1.2990    0.0000 S   0  0  0  0  0  0  0  0  0  0  0  0
    0.7500    1.2990    0.0000 C   0  0  0  0  0  0  0  0  0  0  0  0
   -2.7990   -0.7500    0.0000 C   0  0  0  0  0  0  0  0  0  0  0  0
   -4.2479   -0.3618    0.0000 N   0  0  0  0  0  0  0  0  0  0  0  0
   -4.6362    1.0871    0.0000 C   0  0  0  0  0  0  0  0  0  0  0  0
   -3.5755    2.1478    0.0000 O   0  0  0  0  0  0  0  0  0  0  0  0
   -6.0850    1.4753    0.0000 C   0  0  0  0  0  0  0  0  0  0  0  0
   -7.1457    0.4147    0.0000 N   0  0  0  0  0  0  0  0  0  0  0  0
   -6.4733    2.9242    0.0000 C   0  0  0  0  0  0  0  0  0  0  0  0
   -5.4126    3.9849    0.0000 C   0  0  0  0  0  0  0  0  0  0  0  0
   -5.8008    5.4338    0.0000 C   0  0  0  0  0  0  0  0  0  0  0  0
   -7.2497    5.8220    0.0000 C   0  0  0  0  0  0  0  0  0  0  0  0
   -8.3104    4.7614    0.0000 C   0  0  0  0  0  0  0  0  0  0  0  0
   -7.9222    3.3125    0.0000 C   0  0  0  0  0  0  0  0  0  0  0  0
   -2.0490   -2.0490    0.0000 C   0  0  0  0  0  0  0  0  0  0  0  0
   -2.4373   -3.4979    0.0000 O   0  0  0  0  0  0  0  0  0  0  0  0
    1.5000   -2.5981    0.0000 C   0  0  0  0  0  0  0  0  0  0  0  0
    3.0000   -2.5981    0.0000 O   0  0  0  0  0  0  0  0  0  0  0  0
    0.7500   -3.8971    0.0000 O   0  0  0  0  0  0  0  0  0  0  0  0
  3  4  1  0
  4  5  2  0
  5  6  1  0
  6  7  1  0
  7  8  1  1
  8  9  1  0
  7 10  1  0
 10 11  1  1
 11 12  1  0
 12 13  2  0
 12 14  1  0
 14 15  1  6
 14 16  1  0
 16 17  2  0
 17 18  1  0
 18 19  2  0
 19 20  1  0
 20 21  2  0
 10 22  1  0
 22 23  2  0
  5 24  1  0
 24 25  2  0
 24 26  1  0
  9  4  1  0
 22  6  1  0
 21 16  1  0
M  END
$$$$
674541
     RDKit          2D

 30 31  0  0  0  0  0  0  0  0999 V2000
    7.0000    0.0000    0.0000 O   0  0  0  0  0  0  0  0  0  0  0  0
    8.0000    0.0000    0.0000 Cl  0  0  0  0  0  0  0  0  0  0  0  0
    3.0000    0.0000    0.0000 C   0  0  0  0  0  0  0  0  0  0  0  0
    1.5000    0.0000    0.0000 C   0  0  0  0  0  0  0  0  0  0  0  0
    0.7500   -1.2990    0.0000 C   0  0  0  0  0  0  0  0  0  0  0  0
   -0.7500   -1.2990    0.0000 C   0  0  0  0  0  0  0  0  0  0  0  0
   -1.5000    0.0000    0.0000 C   0  0  0  0  0  0  0  0  0  0  0  0
   -0.7500    1.2990    0.0000 C   0  0  0  0  0  0  0  0  0  0  0  0
   -1.5000    2.5981    0.0000 C   0  0  0  0  0  0  0  0  0  0  0  0
   -0.7500    3.8971    0.0000 N   0  0  0  0  0  0  0  0  0  0  0  0
    0.7500    3.8971    0.0000 C   0  0  0  0  0  0  0  0  0  0  0  0
    1.5000    5.1962    0.0000 C   0  0  0  0  0  0  0  0  0  0  0  0
    0.7500    6.4952    0.0000 N   0  0  0  0  0  0  0  0  0  0  0  0
   -0.7500    6.4952    0.0000 C   0  0  0  0  0  0  0  0  0  0  0  0
   -1.5000    5.1962    0.0000 C   0  0  0  0  0  0  0  0  0  0  0  0
    1.5000    7.7942    0.0000 C   0  0  0  0  0  0  0  0  0  0  0  0
    3.0000    7.7942    0.0000 C   0  0  0  0  0  0  0  0  0  0  0  0
    3.7500    6.4952    0.0000 C   0  0  0  0  0  0  0  0  0  0  0  0
    5.2500    6.4952    0.0000 C   0  0  0  0  0  0  0  0  0  0  0  0
    6.0000    7.7942    0.0000 C   0  0  0  0  0  0  0  0  0  0  0  0
    5.2500    9.0933    0.0000 C   0  0  0  0  0  0  0  0  0  0  0  0
    3.7500    9.0933    0.0000 C   0  0  0  0  0  0  0  0  0  0  0  0
    0.7500    9.0933    0.0000 C   0  0  0  0  0  0  0  0  0  0  0  0
    1.5000   10.3923    0.0000 C   0  0  0  0  0  0  0  0  0  0  0  0
    0.7500   11.6913    0.0000 C   0  0  0  0  0  0  0  0  0  0  0  0
   -0.7500   11.6913    0.0000 C   0  0  0  0  0  0  0  0  0  0  0  0
   -1.5000   12.9904    0.0000 Cl  0  0  0  0  0  0  0  0  0  0  0  0
   -1.5000   10.3923    0.0000 C   0  0  0  0  0  0  0  0  0  0  0  0
   -0.7500    9.0933    0.0000 C   0  0  0  0  0  0  0  0  0  0  0  0
    0.7500    1.2990    0.0000 C   0  0  0  0  0  0  0  0  0  0  0  0
  3  4  1  0
  4  5  2  0
  5  6  1  0
  6  7  2  0
  7  8  1  0
  8  9  1  0
  9 10  1  0
 10 11  1  0
 11 12  1  0
 12 13  1  0
 13 14  1  0
 14 15  1  0
 13 16  1  0
 16 17  1  0
 17 18  2  0
 18 19  1  0
 19 20  2  0
 20 21  1  0
 21 22  2  0
 16 23  1  0
 23 24  2  0
 24 25  1  0
 25 26  2  0
 26 27  1  0
 26 28  1  0
 28 29  2  0
  8 30  2  0
 30  4  1  0
 15 10  1  0
 22 17  1  0
 29 23  1  0
M  END
$$$$
675691
     RDKit          2D

 41 43  0  0  0  0  0  0  0  0999 V2000
    7.0000    0.0000    0.0000 O   0  0  0  0  0  0  0  0  0  0  0  0
    8.0000    0.0000    0.0000 Cl  0  0  0  0  0  0  0  0  0  0  0  0
    4.6740   -4.8322    0.0000 C   0  0  0  0  0  0  0  0  0  0  0  0
    3.3037   -4.2221    0.0000 C   0  0  0  0  0  0  0  0  0  0  0  0
    2.9918   -2.7549    0.0000 C   0  0  0  0  0  0  0  0  0  0  0  0
    1.5000   -2.5981    0.0000 N   0  0  0  0  0  0  0  0  0  0  0  0
    0.8899   -3.9684    0.0000 C   0  0  0  0  0  0  0  0  0  0  0  0
    2.0046   -4.9721    0.0000 N   0  0  0  0  0  0  0  0  0  0  0  0
    0.7500   -1.2990    0.0000 C   0  0  0  0  0  0  0  0  0  0  0  0
    1.5000    0.0000    0.0000 C   0  0  0  0  0  0  0  0  0  0  0  0
    0.7500    1.2990    0.0000 C   0  0  0  0  0  0  0  0  0  0  0  0
    1.5000    2.5981    0.0000 N   0  0  0  0  0  0  0  0  0  0  0  0
    3.0000    2.5981    0.0000 C   0  0  0  0  0  0  0  0  0  0  0  0
    3.7500    1.2990    0.0000 O   0  0  0  0  0  0  0  0  0  0  0  0
    3.7500    3.8971    0.0000 C   0  0  0  0  0  0  0  0  0  0  0  0
    5.2500    3.8971    0.0000 C   0  0  0  0  0  0  0  0  0  0  0  0
    6.0000    5.1962    0.0000 C   0  0  0  0  0  0  0  0  0  0  0  0
    5.2500    6.4952    0.0000 C   0  0  0  0  0  0  0  0  0  0  0  0
    6.0000    7.7942    0.0000 C   0  0  0  0  0  0  0  0  0  0  0  0
    3.7500    6.4952    0.0000 C   0  0  0  0  0  0  0  0  0  0  0  0
    3.0000    7.7942    0.0000 N   0  0  0  0  0  0  0  0  0  0  0  0
    1.5000    7.7942    0.0000 C   0  0  0  0  0  0  0  0  0  0  0  0
    0.7500    9.0933    0.0000 N   0  0  0  0  0  0  0  0  0  0  0  0
   -0.7500    9.0933    0.0000 C   0  0  0  0  0  0  0  0  0  0  0  0
   -1.5000    7.7942    0.0000 C   0  0  0  0  0  0  0  0  0  0  0  0
   -0.7500    6.4952    0.0000 C   0  0  0  0  0  0  0  0  0  0  0  0
    0.7500    6.4952    0.0000 N   0  0  0  0  0  0  0  0  0  0  0  0
   -1.5000    5.1962    0.0000 C   0  0  0  0  0  0  0  0  0  0  0  0
   -3.0000    5.1962    0.0000 C   0  0  0  0  0  0  0  0  0  0  0  0
   -3.7500    3.8971    0.0000 C   0  0  0  0  0  0  0  0  0  0  0  0
   -3.0000    2.5981    0.0000 C   0  0  0  0  0  0  0  0  0  0  0  0
   -1.5000    2.5981    0.0000 N   0  0  0  0  0  0  0  0  0  0  0  0
   -0.7500    3.8971    0.0000 C   0  0  0  0  0  0  0  0  0  0  0  0
    3.0000    5.1962    0.0000 C   0  0  0  0  0  0  0  0  0  0  0  0
   -0.7500    1.2990    0.0000 C   0  0  0  0  0  0  0  0  0  0  0  0
   -1.5000    0.0000    0.0000 C   0  0  0  0  0  0  0  0  0  0  0  0
   -0.7500   -1.2990    0.0000 C   0  0  0  0  0  0  0  0  0  0  0  0
   -3.0000    0.0000    0.0000 C   0  0  0  0  0  0  0  0  0  0  0  0
   -4.5000    0.0000    0.0000 F   0  0  0  0  0  0  0  0  0  0  0  0
   -3.0000    1.5000    0.0000 F   0  0  0  0  0  0  0  0  0  0  0  0
   -3.0000   -1.5000    0.0000 F   0  0  0  0  0  0  0  0  0  0  0  0
  3  4  1  0
  4  5  2  0
  5  6  1  0
  6  7  1  0
  7  8  2  0
  6  9  1  0
  9 10  2  0
 10 11  1  0
 11 12  1  0
 12 13  1  0
 13 14  2  0
 13 15  1  0
 15 16  2  0
 16 17  1  0
 17 18  2  0
 18 19  1  0
 18 20  1  0
 20 21  1  0
 21 22  1  0
 22 23  2  0
 23 24  1  0
 24 25  2  0
 25 26  1  0
 26 27  2  0
 26 28  1  0
 28 29  2  0
 29 30  1  0
 30 31  2  0
 31 32  1  0
 32 33  2  0
 20 34  2  0
 11 35  2  0
 35 36  1  0
 36 37  2  0
 36 38  1  0
 38 39  1  0
 38 40  1  0
 38 41  1  0
  8  4  1  0
 37  9  1  0
 34 15  1  0
 27 22  1  0
 33 28  1  0
M  END
$$$$
1449190
     RDKit          2D

 15 15  0  0  0  0  0  0  0  0999 V2000
    0.0000    2.2990    0.0000 O   0  0  0  0  0  0  0  0  0  0  0  0
    0.0000    3.2990    0.0000 Cl  0  0  0  0  0  0  0  0  0  0  0  0
   -5.0218   -1.6317    0.0000 C   0  0  0  0  0  0  0  0  0  0  0  0
   -3.8083   -0.7500    0.0000 C   0  0  0  0  0  0  0  0  0  0  0  0
   -2.3817   -1.2135    0.0000 O   0  0  0  0  0  0  0  0  0  0  0  0
   -1.5000    0.0000    0.0000 C   0  0  0  0  0  0  0  0  0  0  0  0
   -2.3817    1.2135    0.0000 C   0  0  0  0  0  0  0  0  0  0  0  0
   -3.8083    0.7500    0.0000 S   0  0  0  0  0  0  0  0  0  0  0  0
   -0.7500   -1.2990    0.0000 C   0  0  0  0  0  0  0  0  0  0  0  0
    0.7500   -1.2990    0.0000 N   0  0  0  0  0  0  0  0  0  0  0  0
    1.5000    0.0000    0.0000 C   0  0  0  0  0  0  0  0  0  0  0  0
    0.7500    1.2990    0.0000 C   0  0  0  0  0  0  0  0  0  0  0  0
   -0.7500    1.2990    0.0000 C   0  0  0  0  0  0  0  0  0  0  0  0
   -0.8000    0.0000    0.0000 C   0  0  0  0  0  0  0  0  0  0  0  0
   -0.4000   -0.6928    0.0000 C   0  0  0  0  0  0  0  0  0  0  0  0
  3  4  1  0
  4  5  1  0
  5  6  1  0
  6  7  1  0
  7  8  1  0
  6  9  1  0
  9 10  1  0
 10 11  1  0
 11 12  1  0
 12 13  1  0
 13 14  1  0
 14 15  1  0
  8  4  1  0
 13  6  1  0
 15 10  1  0
M  END
$$$$
674360
     RDKit          2D

 19 17  0  0  0  0  0  0  0  0999 V2000
    0.0000    3.5981    0.0000 O   0  0  0  0  0  0  0  0  0  0  0  0
    0.0000    4.5981    0.0000 Cl  0  0  0  0  0  0  0  0  0  0  0  0
    8.2500   -3.8971    0.0000 C   0  0  0  0  0  0  0  0  0  0  0  0
    7.5000   -2.5981    0.0000 C   0  0  0  0  0  0  0  0  0  0  0  0
    6.0000   -2.5981    0.0000 N   0  0  0  0  0  0  0  0  0  0  0  0
    5.2500   -3.8971    0.0000 C   0  0  0  0  0  0  0  0  0  0  0  0
    6.0000   -5.1962    0.0000 C   0  0  0  0  0  0  0  0  0  0  0  0
    5.2500   -1.2990    0.0000 C   0  0  0  0  0  0  0  0  0  0  0  0
    3.7500   -1.2990    0.0000 C   0  0  0  0  0  0  0  0  0  0  0  0
    3.0000   -2.5981    0.0000 O   0  0  0  0  0  0  0  0  0  0  0  0
    3.0000    0.0000    0.0000 N   0  0  0  0  0  0  0  0  0  0  0  0
    1.5000    0.0000    0.0000 C   0  0  0  0  0  0  0  0  0  0  0  0
    0.7500   -1.2990    0.0000 C   0  0  0  0  0  0  0  0  0  0  0  0
    1.5000   -2.5981    0.0000 C   0  0  0  0  0  0  0  0  0  0  0  0
   -0.7500   -1.2990    0.0000 C   0  0  0  0  0  0  0  0  0  0  0  0
   -1.5000    0.0000    0.0000 C   0  0  0  0  0  0  0  0  0  0  0  0
   -0.7500    1.2990    0.0000 C   0  0  0  0  0  0  0  0  0  0  0  0
    0.7500    1.2990    0.0000 C   0  0  0  0  0  0  0  0  0  0  0  0
    1.5000    2.5981    0.0000 C   0  0  0  0  0  0  0  0  0  0  0  0
  3  4  1  0
  4  5  1  0
  5  6  1  0
  6  7  1  0
  5  8  1  0
  8  9  1  0
  9 10  2  0
  9 11  1  0
 11 12  1  0
 12 13  2  0
 13 14  1  0
 13 15  1  0
 15 16  2  0
 16 17  1  0
 17 18  2  0
 18 19  1  0
 18 12  1  0
M  END
$$$$
674891
     RDKit          2D

 22 20  0  0  0  0  0  0  0  0999 V2000
    0.0000    4.8971    0.0000 O   0  0  0  0  0  0  0  0  0  0  0  0
    0.0000    5.8971    0.0000 Cl  0  0  0  0  0  0  0  0  0  0  0  0
    9.7500   -3.8971    0.0000 C   0  0  0  0  0  0  0  0  0  0  0  0
    8.2500   -3.8971    0.0000 C   0  0  0  0  0  0  0  0  0  0  0  0
    7.5000   -2.5981    0.0000 N   0  0  0  0  0  0  0  0  0  0  0  0
    8.2500   -1.2990    0.0000 C   0  0  0  0  0  0  0  0  0  0  0  0
    9.7500   -1.2990    0.0000 C   0  0  0  0  0  0  0  0  0  0  0  0
    6.0000   -2.5981    0.0000 C   0  0  0  0  0  0  0  0  0  0  0  0
    5.2500   -1.2990    0.0000 C   0  0  0  0  0  0  0  0  0  0  0  0
    3.7500   -1.2990    0.0000 N   0  0  0  0  0  0  0  0  0  0  0  0
    3.0000    0.0000    0.0000 C   0  0  0  0  0  0  0  0  0  0  0  0
    3.7500    1.2990    0.0000 O   0  0  0  0  0  0  0  0  0  0  0  0
    1.5000    0.0000    0.0000 C   0  0  0  0  0  0  0  0  0  0  0  0
    0.7500   -1.2990    0.0000 C   0  0  0  0  0  0  0  0  0  0  0  0
   -0.7500   -1.2990    0.0000 C   0  0  0  0  0  0  0  0  0  0  0  0
   -1.5000   -2.5981    0.0000 Cl  0  0  0  0  0  0  0  0  0  0  0  0
   -1.5000    0.0000    0.0000 C   0  0  0  0  0  0  0  0  0  0  0  0
   -3.0000    0.0000    0.0000 N   0  0  0  0  0  0  0  0  0  0  0  0
   -0.7500    1.2990    0.0000 C   0  0  0  0  0  0  0  0  0  0  0  0
    0.7500    1.2990    0.0000 C   0  0  0  0  0  0  0  0  0  0  0  0
    1.5000    2.5981    0.0000 O   0  0  0  0  0  0  0  0  0  0  0  0
    0.7500    3.8971    0.0000 C   0  0  0  0  0  0  0  0  0  0  0  0
  3  4  1  0
  4  5  1  0
  5  6  1  0
  6  7  1  0
  5  8  1  0
  8  9  1  0
  9 10  1  0
 10 11  1  0
 11 12  2  0
 11 13  1  0
 13 14  2  0
 14 15  1  0
 15 16  1  0
 15 17  2  0
 17 18  1  0
 17 19  1  0
 19 20  2  0
 20 21  1  0
 21 22  1  0
 20 13  1  0
M  END
$$$$
674518
     RDKit          2D

 37 37  0  0  0  0  0  0  0  0999 V2000
    7.5981    0.0000    0.0000 O   0  0  0  0  0  0  0  0  0  0  0  0
    8.5981    0.0000    0.0000 Cl  0  0  0  0  0  0  0  0  0  0  0  0
    4.0000    0.0000    0.0000 C   0  0  0  0  0  0  0  0  0  0  0  0
    5.2990    0.7500    0.0000 C   0  0  0  0  0  0  0  0  0  0  0  0
    6.5981   -0.0000    0.0000 O   0  0  0  0  0  0  0  0  0  0  0  0
   -3.0000   -2.5981    0.0000 C   0  0  0  0  0  0  0  0  0  0  0  0
   -1.5000   -2.5981    0.0000 C   0  0  0  0  0  0  0  0  0  0  0  0
   -0.7500   -3.8971    0.0000 C   0  0  0  0  0  0  0  0  0  0  0  0
   -1.5000   -5.1962    0.0000 C   0  0  0  0  0  0  0  0  0  0  0  0
   -3.0000   -5.1962    0.0000 O   0  0  0  0  0  0  0  0  0  0  0  0
   -0.7500   -6.4952    0.0000 C   0  0  0  0  0  0  0  0  0  0  0  0
   -1.5000   -7.7942    0.0000 C   0  0  0  0  0  0  0  0  0  0  0  0
   -3.0000   -7.7942    0.0000 N   0  0  0  0  0  0  0  0  0  0  0  0
   -3.7500   -9.0933    0.0000 C   0  0  0  0  0  0  0  0  0  0  0  0
   -3.7500   -6.4952    0.0000 C   0  0  0  0  0  0  0  0  0  0  0  0
   -0.7500   -9.0933    0.0000 C   0  0  0  0  0  0  0  0  0  0  0  0
    0.7500   -9.0933    0.0000 C   0  0  0  0  0  0  0  0  0  0  0  0
    1.5000  -10.3923    0.0000 C   0  0  0  0  0  0  0  0  0  0  0  0
    3.0000  -10.3923    0.0000 O   0  0  0  0  0  0  0  0  0  0  0  0
    0.7500  -11.6913    0.0000 N   0  0  0  0  0  0  0  0  0  0  0  0
    1.5000   -7.7942    0.0000 C   0  0  0  0  0  0  0  0  0  0  0  0
    3.0000   -7.7942    0.0000 O   0  0  0  0  0  0  0  0  0  0  0  0
    0.7500   -6.4952    0.0000 C   0  0  0  0  0  0  0  0  0  0  0  0
    2.2500   -6.4952    0.0000 O   0  0  0  0  0  0  0  0  0  0  0  0
    1.5000   -5.1962    0.0000 C   0  0  0  0  0  0  0  0  0  0  0  0
    0.7500   -3.8971    0.0000 C   0  0  0  0  0  0  0  0  0  0  0  0
    1.5000   -2.5981    0.0000 C   0  0  0  0  0  0  0  0  0  0  0  0
    3.0000   -2.5981    0.0000 O   0  0  0  0  0  0  0  0  0  0  0  0
    0.7500   -1.2990    0.0000 C   0  0  0  0  0  0  0  0  0  0  0  0
    1.5000    0.0000    0.0000 C   0  0  0  0  0  0  0  0  0  0  0  0
    3.0000    0.0000    0.0000 O   0  0  0  0  0  0  0  0  0  0  0  0
    0.7500    1.2990    0.0000 C   0  0  0  0  0  0  0  0  0  0  0  0
   -0.7500    1.2990    0.0000 C   0  0  0  0  0  0  0  0  0  0  0  0
   -1.5000    0.0000    0.0000 C   0  0  0  0  0  0  0  0  0  0  0  0
   -0.7500   -1.2990    0.0000 C   0  0  0  0  0  0  0  0  0  0  0  0
    3.0000   -5.1962    0.0000 O   0  0  0  0  0  0  0  0  0  0  0  0
   -1.5000  -10.3923    0.0000 O   0  0  0  0  0  0  0  0  0  0  0  0
  3  4  1  0
  4  5  1  0
  7  6  1  1
  7  8  1  0
  8  9  1  0
  9 10  1  1
  9 11  1  0
 11 12  1  6
 12 13  1  1
 13 14  1  0
 13 15  1  0
 12 16  1  0
 16 17  2  0
 17 18  1  0
 18 19  2  0
 18 20  1  0
 17 21  1  0
 21 22  2  0
 21 23  1  0
 23 24  1  1
 23 25  1  0
 25 26  2  0
 26 27  1  0
 27 28  2  0
 27 29  1  0
 29 30  2  0
 30 31  1  0
 30 32  1  0
 32 33  2  0
 33 34  1  0
 34 35  2  0
 25 36  1  0
 16 37  1  0
 35  7  1  0
  8 26  1  6
 23 11  1  0
 35 29  1  0
M  END
$$$$
674377
     RDKit          2D

 24 25  0  0  0  0  0  0  0  0999 V2000
    0.0000    2.2990    0.0000 O   0  0  0  0  0  0  0  0  0  0  0  0
    0.0000    3.2990    0.0000 Cl  0  0  0  0  0  0  0  0  0  0  0  0
    7.5000   -5.1962    0.0000 C   0  0  0  0  0  0  0  0  0  0  0  0
    6.0000   -5.1962    0.0000 N   0  0  0  0  0  0  0  0  0  0  0  0
    5.2500   -6.4952    0.0000 C   0  0  0  0  0  0  0  0  0  0  0  0
    3.7500   -6.4952    0.0000 C   0  0  0  0  0  0  0  0  0  0  0  0
    3.0000   -5.1962    0.0000 C   0  0  0  0  0  0  0  0  0  0  0  0
    3.7500   -3.8971    0.0000 C   0  0  0  0  0  0  0  0  0  0  0  0
    3.0000   -2.5981    0.0000 C   0  0  0  0  0  0  0  0  0  0  0  0
    1.5000   -2.5981    0.0000 C   0  0  0  0  0  0  0  0  0  0  0  0
    0.7500   -1.2990    0.0000 C   0  0  0  0  0  0  0  0  0  0  0  0
    1.5000    0.0000    0.0000 C   0  0  0  0  0  0  0  0  0  0  0  0
    0.7500    1.2990    0.0000 C   0  0  0  0  0  0  0  0  0  0  0  0
   -0.7500    1.2990    0.0000 C   0  0  0  0  0  0  0  0  0  0  0  0
   -1.5000    0.0000    0.0000 C   0  0  0  0  0  0  0  0  0  0  0  0
   -0.7500   -1.2990    0.0000 C   0  0  0  0  0  0  0  0  0  0  0  0
   -1.5000   -2.5981    0.0000 S   0  0  0  0  0  0  0  0  0  0  0  0
   -0.7500   -3.8971    0.0000 C   0  0  0  0  0  0  0  0  0  0  0  0
   -1.5000   -5.1962    0.0000 C   0  0  0  0  0  0  0  0  0  0  0  0
   -0.7500   -6.4952    0.0000 C   0  0  0  0  0  0  0  0  0  0  0  0
    0.7500   -6.4952    0.0000 C   0  0  0  0  0  0  0  0  0  0  0  0
    1.5000   -5.1962    0.0000 C   0  0  0  0  0  0  0  0  0  0  0  0
    0.7500   -3.8971    0.0000 C   0  0  0  0  0  0  0  0  0  0  0  0
    5.2500   -3.8971    0.0000 C   0  0  0  0  0  0  0  0  0  0  0  0
  3  4  1  0
  4  5  1  0
  5  6  1  0
  6  7  1  0
  7  8  1  0
  8  9  1  0
  9 10  1  0
 10 11  1  0
 11 12  2  0
 12 13  1  0
 13 14  2  0
 14 15  1  0
 15 16  2  0
 16 17  1  0
 17 18  1  0
 18 19  2  0
 19 20  1  0
 20 21  2  0
 21 22  1  0
 22 23  2  0
  8 24  1  0
 24  4  1  0
 23 10  1  0
 16 11  1  0
 23 18  1  0
M  END
$$$$
675042
     RDKit          2D

 30 31  0  0  0  0  0  0  0  0999 V2000
    0.0000    3.5981    0.0000 O   0  0  0  0  0  0  0  0  0  0  0  0
    0.0000    4.5981    0.0000 Cl  0  0  0  0  0  0  0  0  0  0  0  0
    3.7500   -1.2990    0.0000 C   0  0  0  0  0  0  0  0  0  0  0  0
    3.0000    0.0000    0.0000 O   0  0  0  0  0  0  0  0  0  0  0  0
    1.5000    0.0000    0.0000 C   0  0  0  0  0  0  0  0  0  0  0  0
    0.7500   -1.2990    0.0000 C   0  0  0  0  0  0  0  0  0  0  0  0
   -0.7500   -1.2990    0.0000 C   0  0  0  0  0  0  0  0  0  0  0  0
   -1.5000   -2.5981    0.0000 N   0  0  0  0  0  0  0  0  0  0  0  0
   -3.0000   -2.5981    0.0000 C   0  0  0  0  0  0  0  0  0  0  0  0
   -3.7500   -1.2990    0.0000 N   0  0  0  0  0  0  0  0  0  0  0  0
   -3.0000    0.0000    0.0000 C   0  0  0  0  0  0  0  0  0  0  0  0
   -3.7500    1.2990    0.0000 N   0  0  0  0  0  0  0  0  0  0  0  0
   -1.5000    0.0000    0.0000 C   0  0  0  0  0  0  0  0  0  0  0  0
   -0.7500    1.2990    0.0000 C   0  0  0  0  0  0  0  0  0  0  0  0
    0.7500    1.2990    0.0000 C   0  0  0  0  0  0  0  0  0  0  0  0
    1.5000    2.5981    0.0000 O   0  0  0  0  0  0  0  0  0  0  0  0
    3.0000    2.5981    0.0000 C   0  0  0  0  0  0  0  0  0  0  0  0
   -3.7500   -3.8971    0.0000 N   0  0  0  0  0  0  0  0  0  0  0  0
   -5.2500   -3.8971    0.0000 C   0  0  0  0  0  0  0  0  0  0  0  0
   -6.0000   -5.1962    0.0000 C   0  0  0  0  0  0  0  0  0  0  0  0
   -5.2500   -6.4952    0.0000 N   0  0  0  0  0  0  0  0  0  0  0  0
   -3.7500   -6.4952    0.0000 C   0  0  0  0  0  0  0  0  0  0  0  0
   -3.0000   -5.1962    0.0000 C   0  0  0  0  0  0  0  0  0  0  0  0
   -6.0000   -7.7942    0.0000 C   0  0  0  0  0  0  0  0  0  0  0  0
   -5.2500   -9.0933    0.0000 O   0  0  0  0  0  0  0  0  0  0  0  0
   -7.5000   -7.7942    0.0000 C   0  0  0  0  0  0  0  0  0  0  0  0
   -8.3817   -9.0078    0.0000 C   0  0  0  0  0  0  0  0  0  0  0  0
   -9.8083   -8.5442    0.0000 C   0  0  0  0  0  0  0  0  0  0  0  0
   -9.8083   -7.0442    0.0000 C   0  0  0  0  0  0  0  0  0  0  0  0
   -8.3817   -6.5807    0.0000 O   0  0  0  0  0  0  0  0  0  0  0  0
  3  4  1  0
  4  5  1  0
  5  6  2  0
  6  7  1  0
  7  8  2  0
  8  9  1  0
  9 10  2  0
 10 11  1  0
 11 12  1  0
 11 13  2  0
 13 14  1  0
 14 15  2  0
 15 16  1  0
 16 17  1  0
  9 18  1  0
 18 19  1  0
 19 20  1  0
 20 21  1  0
 21 22  1  0
 22 23  1  0
 21 24  1  0
 24 25  2  0
 24 26  1  0
 26 27  1  0
 27 28  1  0
 28 29  1  0
 29 30  1  0
 15  5  1  0
 13  7  1  0
 23 18  1  0
 30 26  1  0
M  END
$$$$
2039301
     RDKit          2D

 37 38  0  0  0  0  0  0  0  0999 V2000
    5.9786    0.0000    0.0000 O   0  0  0  0  0  0  0  0  0  0  0  0
    6.9786    0.0000    0.0000 Cl  0  0  0  0  0  0  0  0  0  0  0  0
   -0.0314   -5.7307    0.0000 C   0  0  0  0  0  0  0  0  0  0  0  0
   -1.1805   -4.7665    0.0000 C   0  0  0  0  0  0  0  0  0  0  0  0
   -0.9200   -3.2893    0.0000 O   0  0  0  0  0  0  0  0  0  0  0  0
    0.4895   -2.7762    0.0000 C   0  0  0  0  0  0  0  0  0  0  0  0
    0.7500   -1.2990    0.0000 C   0  0  0  0  0  0  0  0  0  0  0  0
    1.5000    0.0000    0.0000 C   0  0  0  0  0  0  0  0  0  0  0  0
    0.7500    1.2990    0.0000 C   0  0  0  0  0  0  0  0  0  0  0  0
   -0.7500    1.2990    0.0000 C   0  0  0  0  0  0  0  0  0  0  0  0
   -2.2418    1.4558    0.0000 C   0  0  0  0  0  0  0  0  0  0  0  0
   -2.5537    2.9231    0.0000 C   0  0  0  0  0  0  0  0  0  0  0  0
   -1.2546    3.6731    0.0000 C   0  0  0  0  0  0  0  0  0  0  0  0
   -1.0978    5.1648    0.0000 O   0  0  0  0  0  0  0  0  0  0  0  0
   -0.1399    2.6694    0.0000 N   0  0  0  0  0  0  0  0  0  0  0  0
   -1.5000    0.0000    0.0000 C   0  0  0  0  0  0  0  0  0  0  0  0
   -0.7500   -1.2990    0.0000 N   0  0  0  0  0  0  0  0  0  0  0  0
    2.1595   -1.8121    0.0000 C   0  0  0  0  0  0  0  0  0  0  0  0
    2.4200   -3.2893    0.0000 C   0  0  0  0  0  0  0  0  0  0  0  0
    3.8296   -3.8023    0.0000 C   0  0  0  0  0  0  0  0  0  0  0  0
    4.9786   -2.8381    0.0000 C   0  0  0  0  0  0  0  0  0  0  0  0
    4.7181   -1.3609    0.0000 C   0  0  0  0  0  0  0  0  0  0  0  0
    3.3086   -0.8479    0.0000 C   0  0  0  0  0  0  0  0  0  0  0  0
   -2.5900   -5.2795    0.0000 C   0  0  0  0  0  0  0  0  0  0  0  0
   -2.8505   -6.7567    0.0000 C   0  0  0  0  0  0  0  0  0  0  0  0
   -4.2600   -7.2698    0.0000 C   0  0  0  0  0  0  0  0  0  0  0  0
   -5.4091   -6.3056    0.0000 C   0  0  0  0  0  0  0  0  0  0  0  0
   -5.1486   -4.8284    0.0000 C   0  0  0  0  0  0  0  0  0  0  0  0
   -3.7391   -4.3153    0.0000 C   0  0  0  0  0  0  0  0  0  0  0  0
   -6.2977   -3.8642    0.0000 C   0  0  0  0  0  0  0  0  0  0  0  0
   -7.4468   -2.9000    0.0000 F   0  0  0  0  0  0  0  0  0  0  0  0
   -7.2619   -5.0133    0.0000 F   0  0  0  0  0  0  0  0  0  0  0  0
   -5.3335   -2.7151    0.0000 F   0  0  0  0  0  0  0  0  0  0  0  0
   -4.5205   -8.7470    0.0000 C   0  0  0  0  0  0  0  0  0  0  0  0
   -4.7810  -10.2242    0.0000 F   0  0  0  0  0  0  0  0  0  0  0  0
   -3.0433   -9.0074    0.0000 F   0  0  0  0  0  0  0  0  0  0  0  0
   -5.9977   -8.4865    0.0000 F   0  0  0  0  0  0  0  0  0  0  0  0
  4  3  1  6
  4  5  1  0
  5  6  1  0
  7  6  1  6
  7  8  1  0
  8  9  1  0
 10  9  1  1
 10 11  1  0
 11 12  1  0
 12 13  1  0
 13 14  2  0
 13 15  1  0
 10 16  1  0
 16 17  1  0
  7 18  1  0
 18 19  2  0
 19 20  1  0
 20 21  2  0
 21 22  1  0
 22 23  2  0
  4 24  1  0
 24 25  2  0
 25 26  1  0
 26 27  2  0
 27 28  1  0
 28 29  2  0
 28 30  1  0
 30 31  1  0
 30 32  1  0
 30 33  1  0
 26 34  1  0
 34 35  1  0
 34 36  1  0
 34 37  1  0
 17  7  1  0
 15 10  1  0
 23 18  1  0
 29 24  1  0
M  END
$$$$
674747
     RDKit          2D

 15 14  0  0  0  0  0  0  0  0999 V2000
    0.0000    5.8828    0.0000 O   0  0  0  0  0  0  0  0  0  0  0  0
    6.6172    0.9023    0.0000 Cl  0  0  0  0  0  0  0  0  0  0  0  0
    5.2077    1.4153    0.0000 C   0  0  0  0  0  0  0  0  0  0  0  0
    4.0586    0.4512    0.0000 C   0  0  0  0  0  0  0  0  0  0  0  0
    2.6491    0.9642    0.0000 N   0  0  0  0  0  0  0  0  0  0  0  0
    2.3886    2.4414    0.0000 C   0  0  0  0  0  0  0  0  0  0  0  0
    3.5377    3.4056    0.0000 C   0  0  0  0  0  0  0  0  0  0  0  0
    3.2772    4.8828    0.0000 Cl  0  0  0  0  0  0  0  0  0  0  0  0
    1.5000    0.0000    0.0000 P   0  0  0  0  0  0  0  0  0  0  0  0
    2.6491   -0.9642    0.0000 O   0  0  0  0  0  0  0  0  0  0  0  0
    0.7500   -1.2990    0.0000 N   0  0  0  0  0  0  0  0  0  0  0  0
   -0.7500   -1.2990    0.0000 C   0  0  0  0  0  0  0  0  0  0  0  0
   -1.5000    0.0000    0.0000 C   0  0  0  0  0  0  0  0  0  0  0  0
   -0.7500    1.2990    0.0000 C   0  0  0  0  0  0  0  0  0  0  0  0
    0.7500    1.2990    0.0000 O   0  0  0  0  0  0  0  0  0  0  0  0
  2  3  1  0
  3  4  1  0
  4  5  1  0
  5  6  1  0
  6  7  1  0
  7  8  1  0
  5  9  1  0
  9 10  2  0
  9 11  1  0
 11 12  1  0
 12 13  1  0
 13 14  1  0
 14 15  1  0
 15  9  1  0
M  END
$$$$
675050
     RDKit          2D

 28 30  0  0  0  0  0  0  0  0999 V2000
    0.0000    7.4952    0.0000 O   0  0  0  0  0  0  0  0  0  0  0  0
    3.7500   -1.2990    0.0000 C   0  0  0  0  0  0  0  0  0  0  0  0
    3.0000    0.0000    0.0000 O   0  0  0  0  0  0  0  0  0  0  0  0
    1.5000    0.0000    0.0000 C   0  0  0  0  0  0  0  0  0  0  0  0
    0.7500   -1.2990    0.0000 C   0  0  0  0  0  0  0  0  0  0  0  0
   -0.7500   -1.2990    0.0000 C   0  0  0  0  0  0  0  0  0  0  0  0
   -1.5000    0.0000    0.0000 C   0  0  0  0  0  0  0  0  0  0  0  0
   -3.0000    0.0000    0.0000 C   0  0  0  0  0  0  0  0  0  0  0  0
   -3.7500    1.2990    0.0000 C   0  0  0  0  0  0  0  0  0  0  0  0
   -3.0000    2.5981    0.0000 C   0  0  0  0  0  0  0  0  0  0  0  0
   -3.7500    3.8971    0.0000 C   0  0  0  0  0  0  0  0  0  0  0  0
   -3.0000    5.1962    0.0000 C   0  0  0  0  0  0  0  0  0  0  0  0
   -1.5000    5.1962    0.0000 C   0  0  0  0  0  0  0  0  0  0  0  0
   -0.7500    6.4952    0.0000 O   0  0  0  0  0  0  0  0  0  0  0  0
   -0.7500    3.8971    0.0000 C   0  0  0  0  0  0  0  0  0  0  0  0
    0.6203    3.2870    0.0000 O   0  0  0  0  0  0  0  0  0  0  0  0
    0.7500    1.2990    0.0000 C   0  0  0  0  0  0  0  0  0  0  0  0
   -0.7500    1.2990    0.0000 C   0  0  0  0  0  0  0  0  0  0  0  0
   -1.5000    2.5981    0.0000 C   0  0  0  0  0  0  0  0  0  0  0  0
   -2.6000    3.2909    0.0000 C   0  0  0  0  0  0  0  0  0  0  0  0
   -3.4000    3.2909    0.0000 C   0  0  0  0  0  0  0  0  0  0  0  0
   -3.8000    2.5981    0.0000 N   0  0  0  0  0  0  0  0  0  0  0  0
   -6.0000    2.5981    0.0000 C   0  0  0  0  0  0  0  0  0  0  0  0
    0.0000    9.0442    0.0000 O   0  0  0  0  0  0  0  0  0  0  0  0
    1.2990    9.7942    0.0000 P   0  0  0  0  0  0  0  0  0  0  0  0
    2.5981   10.5442    0.0000 O   0  0  0  0  0  0  0  0  0  0  0  0
    0.5490   11.0933    0.0000 O   0  0  0  0  0  0  0  0  0  0  0  0
    2.0490    8.4952    0.0000 O   0  0  0  0  0  0  0  0  0  0  0  0
  2  3  1  0
  3  4  1  0
  4  5  2  0
  5  6  1  0
  6  7  2  0
  7  8  1  0
  9  8  1  1
  9 10  1  0
 10 11  1  6
 11 12  2  0
 12 13  1  0
 13 14  1  6
 13 15  1  0
 15 16  1  6
 16 17  1  0
 17 18  2  0
 18 19  1  0
 19 20  1  1
 20 21  1  0
 21 22  1  0
 22 23  1  0
 24 25  1  0
 25 26  2  0
 25 27  1  0
 25 28  1  0
 17  4  1  0
 18  7  1  0
 22  9  1  0
 19 10  1  0
 19 15  1  0
M  END
$$$$
674739
     RDKit          2D

 33 34  0  0  0  0  0  0  0  0999 V2000
    8.5000    0.0000    0.0000 O   0  0  0  0  0  0  0  0  0  0  0  0
    3.7500   -1.2990    0.0000 C   0  0  0  0  0  0  0  0  0  0  0  0
    3.0000    0.0000    0.0000 O   0  0  0  0  0  0  0  0  0  0  0  0
    1.5000    0.0000    0.0000 C   0  0  0  0  0  0  0  0  0  0  0  0
    0.7500   -1.2990    0.0000 C   0  0  0  0  0  0  0  0  0  0  0  0
   -0.7500   -1.2990    0.0000 N   0  0  0  0  0  0  0  0  0  0  0  0
   -1.5000   -2.5981    0.0000 C   0  0  0  0  0  0  0  0  0  0  0  0
   -3.0000   -2.5981    0.0000 C   0  0  0  0  0  0  0  0  0  0  0  0
   -3.7500   -3.8971    0.0000 C   0  0  0  0  0  0  0  0  0  0  0  0
   -5.2500   -3.8971    0.0000 O   0  0  0  0  0  0  0  0  0  0  0  0
   -6.0000   -5.1962    0.0000 C   0  0  0  0  0  0  0  0  0  0  0  0
   -7.5000   -5.1962    0.0000 C   0  0  0  0  0  0  0  0  0  0  0  0
   -8.2500   -6.4952    0.0000 C   0  0  0  0  0  0  0  0  0  0  0  0
   -7.5000   -7.7942    0.0000 C   0  0  0  0  0  0  0  0  0  0  0  0
   -8.2500   -9.0933    0.0000 F   0  0  0  0  0  0  0  0  0  0  0  0
   -6.0000   -7.7942    0.0000 C   0  0  0  0  0  0  0  0  0  0  0  0
   -5.2500   -6.4952    0.0000 C   0  0  0  0  0  0  0  0  0  0  0  0
   -1.5000    0.0000    0.0000 C   0  0  0  0  0  0  0  0  0  0  0  0
   -0.7500    1.2990    0.0000 C   0  0  0  0  0  0  0  0  0  0  0  0
    0.7500    1.2990    0.0000 C   0  0  0  0  0  0  0  0  0  0  0  0
    1.5000    2.5981    0.0000 N   0  0  0  0  0  0  0  0  0  0  0  0
    3.0000    2.5981    0.0000 C   0  0  0  0  0  0  0  0  0  0  0  0
    3.7500    1.2990    0.0000 O   0  0  0  0  0  0  0  0  0  0  0  0
    3.7500    3.8971    0.0000 C   0  0  0  0  0  0  0  0  0  0  0  0
    5.2500    3.8971    0.0000 C   0  0  0  0  0  0  0  0  0  0  0  0
    6.0000    5.1962    0.0000 C   0  0  0  0  0  0  0  0  0  0  0  0
    7.5000    5.1962    0.0000 Cl  0  0  0  0  0  0  0  0  0  0  0  0
    5.2500    6.4952    0.0000 C   0  0  0  0  0  0  0  0  0  0  0  0
    6.0000    7.7942    0.0000 N   0  0  0  0  0  0  0  0  0  0  0  0
    3.7500    6.4952    0.0000 C   0  0  0  0  0  0  0  0  0  0  0  0
    3.0000    5.1962    0.0000 C   0  0  0  0  0  0  0  0  0  0  0  0
    1.5000    5.1962    0.0000 O   0  0  0  0  0  0  0  0  0  0  0  0
    0.7500    6.4952    0.0000 C   0  0  0  0  0  0  0  0  0  0  0  0
  2  3  1  0
  3  4  1  0
  4  5  1  0
  5  6  1  0
  6  7  1  0
  7  8  1  0
  8  9  1  0
  9 10  1  0
 10 11  1  0
 11 12  2  0
 12 13  1  0
 13 14  2  0
 14 15  1  0
 14 16  1  0
 16 17  2  0
  6 18  1  0
 18 19  1  0
 19 20  1  0
 20 21  1  0
 21 22  1  0
 22 23  2  0
 22 24  1  0
 24 25  2  0
 25 26  1  0
 26 27  1  0
 26 28  2  0
 28 29  1  0
 28 30  1  0
 30 31  2  0
 31 32  1  0
 32 33  1  0
 20  4  1  0
 17 11  1  0
 31 24  1  0
M  END
$$$$
1543375
     RDKit          2D

 30 32  0  0  0  0  0  0  0  0999 V2000
    7.9017    0.0000    0.0000 O   0  0  0  0  0  0  0  0  0  0  0  0
    4.3037    0.0000    0.0000 C   0  0  0  0  0  0  0  0  0  0  0  0
    5.6027    0.7500    0.0000 S   0  0  0  0  0  0  0  0  0  0  0  0
    6.3527   -0.5490    0.0000 O   0  0  0  0  0  0  0  0  0  0  0  0
    4.8527    2.0490    0.0000 O   0  0  0  0  0  0  0  0  0  0  0  0
    6.9017    1.5000    0.0000 O   0  0  0  0  0  0  0  0  0  0  0  0
   -0.7500   -3.8971    0.0000 O   0  0  0  0  0  0  0  0  0  0  0  0
    0.7500   -3.8971    0.0000 C   0  0  0  0  0  0  0  0  0  0  0  0
    1.5000   -2.5981    0.0000 O   0  0  0  0  0  0  0  0  0  0  0  0
    0.7500   -1.2990    0.0000 C   0  0  0  0  0  0  0  0  0  0  0  0
    1.5000    0.0000    0.0000 C   0  0  0  0  0  0  0  0  0  0  0  0
    0.7500    1.2990    0.0000 C   0  0  0  0  0  0  0  0  0  0  0  0
    1.5000    2.5981    0.0000 C   0  0  0  0  0  0  0  0  0  0  0  0
    0.7500    3.8971    0.0000 C   0  0  0  0  0  0  0  0  0  0  0  0
   -0.1996    2.0185    0.0000 C   0  0  0  0  0  0  0  0  0  0  0  0
   -1.5000    0.0000    0.0000 C   0  0  0  0  0  0  0  0  0  0  0  0
   -0.7500   -1.2990    0.0000 C   0  0  0  0  0  0  0  0  0  0  0  0
   -0.7500    1.2990    0.0000 N   0  0  0  0  0  0  0  0  0  0  0  0
   -1.5000    2.5981    0.0000 C   0  0  0  0  0  0  0  0  0  0  0  0
   -0.7500    3.8971    0.0000 C   0  0  0  0  0  0  0  0  0  0  0  0
   -1.5000    5.1962    0.0000 O   0  0  0  0  0  0  0  0  0  0  0  0
    1.5000   -5.1962    0.0000 C   0  0  0  0  0  0  0  0  0  0  0  0
    2.9918   -5.3529    0.0000 C   0  0  0  0  0  0  0  0  0  0  0  0
    3.3037   -6.8202    0.0000 N   0  0  0  0  0  0  0  0  0  0  0  0
    2.0046   -7.5702    0.0000 C   0  0  0  0  0  0  0  0  0  0  0  0
    1.6927   -9.0374    0.0000 C   0  0  0  0  0  0  0  0  0  0  0  0
    0.2662   -9.5009    0.0000 C   0  0  0  0  0  0  0  0  0  0  0  0
   -0.8486   -8.4972    0.0000 C   0  0  0  0  0  0  0  0  0  0  0  0
   -0.5367   -7.0300    0.0000 C   0  0  0  0  0  0  0  0  0  0  0  0
    0.8899   -6.5665    0.0000 C   0  0  0  0  0  0  0  0  0  0  0  0
  2  3  1  0
  3  4  2  0
  3  5  2  0
  3  6  1  0
  7  8  2  0
  8  9  1  0
 10  9  1  1
 10 11  1  0
 12 11  1  1
 12 13  1  0
 14 13  1  1
 14 15  1  0
 15 16  1  0
 16 17  1  6
 16 18  1  0
 18 19  1  0
 19 20  1  0
 20 21  2  0
  8 22  1  0
 22 23  2  0
 23 24  1  0
 24 25  1  0
 25 26  2  0
 26 27  1  0
 27 28  2  0
 28 29  1  0
 29 30  2  0
 17 10  1  0
 18 12  1  0
 20 14  1  0
 30 22  1  0
 30 25  1  0
M  END
$$$$
674650
     RDKit          2D

 33 35  0  0  0  0  0  0  0  0999 V2000
    4.0000    0.0000    0.0000 O   0  0  0  0  0  0  0  0  0  0  0  0
   -3.0000   -2.5981    0.0000 C   0  0  0  0  0  0  0  0  0  0  0  0
   -1.5000   -2.5981    0.0000 C   0  0  0  0  0  0  0  0  0  0  0  0
   -0.7500   -3.8971    0.0000 C   0  0  0  0  0  0  0  0  0  0  0  0
   -1.5000   -5.1962    0.0000 C   0  0  0  0  0  0  0  0  0  0  0  0
   -3.0000   -5.1962    0.0000 O   0  0  0  0  0  0  0  0  0  0  0  0
   -0.7500   -6.4952    0.0000 C   0  0  0  0  0  0  0  0  0  0  0  0
   -1.5000   -7.7942    0.0000 C   0  0  0  0  0  0  0  0  0  0  0  0
   -3.0000   -7.7942    0.0000 N   0  0  0  0  0  0  0  0  0  0  0  0
   -3.7500   -9.0933    0.0000 C   0  0  0  0  0  0  0  0  0  0  0  0
   -3.7500   -6.4952    0.0000 C   0  0  0  0  0  0  0  0  0  0  0  0
   -0.7500   -9.0933    0.0000 C   0  0  0  0  0  0  0  0  0  0  0  0
    0.7500   -9.0933    0.0000 C   0  0  0  0  0  0  0  0  0  0  0  0
    1.5000  -10.3923    0.0000 C   0  0  0  0  0  0  0  0  0  0  0  0
    3.0000  -10.3923    0.0000 O   0  0  0  0  0  0  0  0  0  0  0  0
    0.7500  -11.6913    0.0000 N   0  0  0  0  0  0  0  0  0  0  0  0
    1.5000   -7.7942    0.0000 C   0  0  0  0  0  0  0  0  0  0  0  0
    3.0000   -7.7942    0.0000 O   0  0  0  0  0  0  0  0  0  0  0  0
    0.7500   -6.4952    0.0000 C   0  0  0  0  0  0  0  0  0  0  0  0
    2.2500   -6.4952    0.0000 O   0  0  0  0  0  0  0  0  0  0  0  0
    1.5000   -5.1962    0.0000 C   0  0  0  0  0  0  0  0  0  0  0  0
    0.7500   -3.8971    0.0000 C   0  0  0  0  0  0  0  0  0  0  0  0
    1.5000   -2.5981    0.0000 C   0  0  0  0  0  0  0  0  0  0  0  0
    3.0000   -2.5981    0.0000 O   0  0  0  0  0  0  0  0  0  0  0  0
    0.7500   -1.2990    0.0000 C   0  0  0  0  0  0  0  0  0  0  0  0
    1.5000    0.0000    0.0000 C   0  0  0  0  0  0  0  0  0  0  0  0
    3.0000    0.0000    0.0000 O   0  0  0  0  0  0  0  0  0  0  0  0
    0.7500    1.2990    0.0000 C   0  0  0  0  0  0  0  0  0  0  0  0
   -0.7500    1.2990    0.0000 C   0  0  0  0  0  0  0  0  0  0  0  0
   -1.5000    0.0000    0.0000 C   0  0  0  0  0  0  0  0  0  0  0  0
   -0.7500   -1.2990    0.0000 C   0  0  0  0  0  0  0  0  0  0  0  0
    3.0000   -5.1962    0.0000 O   0  0  0  0  0  0  0  0  0  0  0  0
   -1.5000  -10.3923    0.0000 O   0  0  0  0  0  0  0  0  0  0  0  0
  3  2  1  1
  3  4  1  0
  4  5  1  0
  5  6  1  1
  5  7  1  0
  7  8  1  6
  8  9  1  1
  9 10  1  0
  9 11  1  0
  8 12  1  0
 12 13  2  0
 13 14  1  0
 14 15  2  0
 14 16  1  0
 13 17  1  0
 17 18  2  0
 17 19  1  0
 19 20  1  1
 19 21  1  0
 21 22  2  0
 22 23  1  0
 23 24  2  0
 23 25  1  0
 25 26  2  0
 26 27  1  0
 26 28  1  0
 28 29  2  0
 29 30  1  0
 30 31  2  0
 21 32  1  0
 12 33  1  0
 31  3  1  0
  4 22  1  6
 19  7  1  0
 31 25  1  0
M  END
$$$$
674699
     RDKit          2D

 17 16  0  0  0  0  0  0  0  0999 V2000
    0.0000    3.5981    0.0000 O   0  0  0  0  0  0  0  0  0  0  0  0
    4.5000   -2.5981    0.0000 C   0  0  0  0  0  0  0  0  0  0  0  0
    3.7500   -1.2990    0.0000 C   0  0  0  0  0  0  0  0  0  0  0  0
    3.0000    0.0000    0.0000 C   0  0  0  0  0  0  0  0  0  0  0  0
    1.5000    0.0000    0.0000 C   0  0  0  0  0  0  0  0  0  0  0  0
    0.7500   -1.2990    0.0000 C   0  0  0  0  0  0  0  0  0  0  0  0
   -0.7500   -1.2990    0.0000 C   0  0  0  0  0  0  0  0  0  0  0  0
   -1.5000    0.0000    0.0000 C   0  0  0  0  0  0  0  0  0  0  0  0
   -3.0000    0.0000    0.0000 O   0  0  0  0  0  0  0  0  0  0  0  0
   -0.7500    1.2990    0.0000 C   0  0  0  0  0  0  0  0  0  0  0  0
   -1.5000    2.5981    0.0000 O   0  0  0  0  0  0  0  0  0  0  0  0
    0.7500    1.2990    0.0000 C   0  0  0  0  0  0  0  0  0  0  0  0
    2.4510   -2.0490    0.0000 N   0  0  0  0  0  0  0  0  0  0  0  0
    2.4510   -3.5490    0.0000 N   0  0  0  0  0  0  0  0  0  0  0  0
    5.0490   -0.5490    0.0000 C   0  0  0  0  0  0  0  0  0  0  0  0
    5.0490    0.9510    0.0000 O   0  0  0  0  0  0  0  0  0  0  0  0
    6.3481   -1.2990    0.0000 O   0  0  0  0  0  0  0  0  0  0  0  0
  3  2  1  6
  3  4  1  0
  4  5  1  0
  5  6  2  0
  6  7  1  0
  7  8  2  0
  8  9  1  0
  8 10  1  0
 10 11  1  0
 10 12  2  0
  3 13  1  0
 13 14  1  0
  3 15  1  0
 15 16  2  0
 15 17  1  0
 12  5  1  0
M  END
$$$$
1926758
     RDKit          2D

 30 31  0  0  0  0  0  0  0  0999 V2000
    0.0000    7.7484    0.0000 O   0  0  0  0  0  0  0  0  0  0  0  0
   -5.5085    0.2283    0.0000 C   0  0  0  0  0  0  0  0  0  0  0  0
   -4.0819    0.6918    0.0000 C   0  0  0  0  0  0  0  0  0  0  0  0
   -3.7701    2.1590    0.0000 C   0  0  0  0  0  0  0  0  0  0  0  0
   -4.8848    3.1627    0.0000 C   0  0  0  0  0  0  0  0  0  0  0  0
   -4.5729    4.6300    0.0000 C   0  0  0  0  0  0  0  0  0  0  0  0
   -5.6876    5.6337    0.0000 C   0  0  0  0  0  0  0  0  0  0  0  0
   -6.6913    4.5189    0.0000 C   0  0  0  0  0  0  0  0  0  0  0  0
   -4.6839    6.7484    0.0000 C   0  0  0  0  0  0  0  0  0  0  0  0
   -6.8024    6.6374    0.0000 O   0  0  0  0  0  0  0  0  0  0  0  0
   -2.9672   -0.3119    0.0000 C   0  0  0  0  0  0  0  0  0  0  0  0
   -3.1240   -1.8037    0.0000 C   0  0  0  0  0  0  0  0  0  0  0  0
   -1.7537   -2.4138    0.0000 C   0  0  0  0  0  0  0  0  0  0  0  0
   -0.7500   -1.2990    0.0000 C   0  0  0  0  0  0  0  0  0  0  0  0
    0.7500   -1.2990    0.0000 C   0  0  0  0  0  0  0  0  0  0  0  0
    1.5000   -2.5981    0.0000 C   0  0  0  0  0  0  0  0  0  0  0  0
    3.0000   -2.5981    0.0000 C   0  0  0  0  0  0  0  0  0  0  0  0
    3.7500   -3.8971    0.0000 C   0  0  0  0  0  0  0  0  0  0  0  0
    5.2500   -3.8971    0.0000 C   0  0  0  0  0  0  0  0  0  0  0  0
    6.0000   -5.1962    0.0000 C   0  0  0  0  0  0  0  0  0  0  0  0
    7.5000   -5.1962    0.0000 O   0  0  0  0  0  0  0  0  0  0  0  0
    5.2500   -6.4952    0.0000 C   0  0  0  0  0  0  0  0  0  0  0  0
    3.7500   -6.4952    0.0000 C   0  0  0  0  0  0  0  0  0  0  0  0
    3.0000   -5.1962    0.0000 C   0  0  0  0  0  0  0  0  0  0  0  0
    1.5000   -5.1962    0.0000 C   0  0  0  0  0  0  0  0  0  0  0  0
    1.5000    0.0000    0.0000 C   0  0  0  0  0  0  0  0  0  0  0  0
    0.7500    1.2990    0.0000 C   0  0  0  0  0  0  0  0  0  0  0  0
   -0.7500    1.2990    0.0000 C   0  0  0  0  0  0  0  0  0  0  0  0
   -1.5000    0.0000    0.0000 C   0  0  0  0  0  0  0  0  0  0  0  0
   -2.3817    1.2135    0.0000 C   0  0  0  0  0  0  0  0  0  0  0  0
  3  2  1  6
  3  4  1  0
  4  5  1  0
  5  6  1  0
  6  7  1  0
  7  8  1  0
  7  9  1  0
  7 10  1  0
  3 11  1  0
 11 12  1  6
 12 13  1  0
 14 13  1  6
 14 15  1  0
 15 16  2  0
 16 17  1  0
 17 18  2  0
 18 19  1  0
 19 20  1  0
 20 21  1  1
 20 22  1  0
 22 23  1  0
 23 24  1  0
 24 25  2  0
 15 26  1  0
 26 27  1  0
 27 28  1  0
 28 29  1  0
 29 30  1  6
 29 11  1  0
 29 14  1  0
 24 18  1  0
M  END
$$$$
1110310
     RDKit          2D

 30 30  0  0  0  0  0  0  0  0999 V2000
   10.7500    0.0000    0.0000 O   0  0  0  0  0  0  0  0  0  0  0  0
    9.7500   -9.0933    0.0000 N   0  0  0  0  0  0  0  0  0  0  0  0
    8.2500   -9.0933    0.0000 C   0  0  0  0  0  0  0  0  0  0  0  0
    7.5000   -7.7942    0.0000 C   0  0  0  0  0  0  0  0  0  0  0  0
    6.0000   -7.7942    0.0000 C   0  0  0  0  0  0  0  0  0  0  0  0
    5.2500   -6.4952    0.0000 C   0  0  0  0  0  0  0  0  0  0  0  0
    3.7500   -6.4952    0.0000 C   0  0  0  0  0  0  0  0  0  0  0  0
    3.0000   -5.1962    0.0000 N   0  0  0  0  0  0  0  0  0  0  0  0
    3.7500   -3.8971    0.0000 C   0  0  0  0  0  0  0  0  0  0  0  0
    3.0000   -2.5981    0.0000 C   0  0  0  0  0  0  0  0  0  0  0  0
    1.5000   -2.5981    0.0000 C   0  0  0  0  0  0  0  0  0  0  0  0
    0.7500   -1.2990    0.0000 C   0  0  0  0  0  0  0  0  0  0  0  0
   -0.7500   -1.2990    0.0000 C   0  0  0  0  0  0  0  0  0  0  0  0
   -1.5000    0.0000    0.0000 C   0  0  0  0  0  0  0  0  0  0  0  0
   -0.7500    1.2990    0.0000 C   0  0  0  0  0  0  0  0  0  0  0  0
    0.7500    1.2990    0.0000 C   0  0  0  0  0  0  0  0  0  0  0  0
    1.5000    0.0000    0.0000 C   0  0  0  0  0  0  0  0  0  0  0  0
    5.2500   -3.8971    0.0000 C   0  0  0  0  0  0  0  0  0  0  0  0
    6.0000   -2.5981    0.0000 O   0  0  0  0  0  0  0  0  0  0  0  0
    6.0000   -5.1962    0.0000 O   0  0  0  0  0  0  0  0  0  0  0  0
    3.0000   -7.7942    0.0000 C   0  0  0  0  0  0  0  0  0  0  0  0
    1.5000   -7.7942    0.0000 O   0  0  0  0  0  0  0  0  0  0  0  0
    3.7500   -9.0933    0.0000 N   0  0  0  0  0  0  0  0  0  0  0  0
    5.2418   -9.2501    0.0000 C   0  0  0  0  0  0  0  0  0  0  0  0
    5.5537  -10.7173    0.0000 C   0  0  0  0  0  0  0  0  0  0  0  0
    4.2546  -11.4673    0.0000 C   0  0  0  0  0  0  0  0  0  0  0  0
    3.1399  -10.4636    0.0000 C   0  0  0  0  0  0  0  0  0  0  0  0
    1.6727  -10.7755    0.0000 C   0  0  0  0  0  0  0  0  0  0  0  0
    0.6690   -9.6607    0.0000 O   0  0  0  0  0  0  0  0  0  0  0  0
    1.2091  -12.2020    0.0000 O   0  0  0  0  0  0  0  0  0  0  0  0
  2  3  1  0
  3  4  1  0
  4  5  1  0
  5  6  1  0
  7  6  1  1
  7  8  1  0
  8  9  1  0
  9 10  1  1
 10 11  1  0
 11 12  1  0
 12 13  2  0
 13 14  1  0
 14 15  2  0
 15 16  1  0
 16 17  2  0
  9 18  1  0
 18 19  2  0
 18 20  1  0
  7 21  1  0
 21 22  2  0
 21 23  1  0
 23 24  1  0
 24 25  1  0
 25 26  1  0
 26 27  1  0
 27 28  1  1
 28 29  2  0
 28 30  1  0
 17 12  1  0
 27 23  1  0
M  END
$$$$
674561
     RDKit          2D

 25 26  0  0  0  0  0  0  0  0999 V2000
    4.9320    0.0000    0.0000 O   0  0  0  0  0  0  0  0  0  0  0  0
    3.9320   -5.9810    0.0000 N   0  0  0  0  0  0  0  0  0  0  0  0
    2.4831   -6.3692    0.0000 C   0  0  0  0  0  0  0  0  0  0  0  0
    1.4224   -5.3086    0.0000 C   0  0  0  0  0  0  0  0  0  0  0  0
   -0.0265   -5.6968    0.0000 O   0  0  0  0  0  0  0  0  0  0  0  0
    1.8107   -3.8597    0.0000 N   0  0  0  0  0  0  0  0  0  0  0  0
    0.7500   -2.7990    0.0000 C   0  0  0  0  0  0  0  0  0  0  0  0
    0.7500   -1.2990    0.0000 C   0  0  0  0  0  0  0  0  0  0  0  0
    1.5000    0.0000    0.0000 C   0  0  0  0  0  0  0  0  0  0  0  0
    0.7500    1.2990    0.0000 C   0  0  0  0  0  0  0  0  0  0  0  0
   -0.7500    1.2990    0.0000 C   0  0  0  0  0  0  0  0  0  0  0  0
   -1.5000    0.0000    0.0000 C   0  0  0  0  0  0  0  0  0  0  0  0
   -0.7500   -1.2990    0.0000 N   0  0  0  0  0  0  0  0  0  0  0  0
   -0.7500   -2.7990    0.0000 C   0  0  0  0  0  0  0  0  0  0  0  0
   -1.8107   -3.8597    0.0000 O   0  0  0  0  0  0  0  0  0  0  0  0
   -3.0000    0.0000    0.0000 C   0  0  0  0  0  0  0  0  0  0  0  0
   -3.7500   -1.2990    0.0000 O   0  0  0  0  0  0  0  0  0  0  0  0
   -3.7500    1.2990    0.0000 O   0  0  0  0  0  0  0  0  0  0  0  0
   -1.5000    2.5981    0.0000 Cl  0  0  0  0  0  0  0  0  0  0  0  0
    2.0949   -7.8181    0.0000 C   0  0  0  0  0  0  0  0  0  0  0  0
    0.6460   -8.2064    0.0000 C   0  0  0  0  0  0  0  0  0  0  0  0
    0.2577   -9.6553    0.0000 C   0  0  0  0  0  0  0  0  0  0  0  0
    1.3184  -10.7159    0.0000 C   0  0  0  0  0  0  0  0  0  0  0  0
    2.7673  -10.3277    0.0000 C   0  0  0  0  0  0  0  0  0  0  0  0
    3.1555   -8.8788    0.0000 C   0  0  0  0  0  0  0  0  0  0  0  0
  3  2  1  6
  3  4  1  0
  4  5  2  0
  4  6  1  0
  7  6  1  6
  7  8  1  0
  8  9  1  6
  9 10  1  0
 10 11  1  0
 11 12  2  0
 12 13  1  0
 13 14  1  0
 14 15  2  0
 12 16  1  0
 16 17  2  0
 16 18  1  0
 11 19  1  0
  3 20  1  0
 20 21  2  0
 21 22  1  0
 22 23  2  0
 23 24  1  0
 24 25  2  0
 14  7  1  0
 13  8  1  0
 25 20  1  0
M  END
$$$$
674969
     RDKit          2D

 25 26  0  0  0  0  0  0  0  0999 V2000
    4.9320    0.0000    0.0000 O   0  0  0  0  0  0  0  0  0  0  0  0
    3.9320   -5.9810    0.0000 N   0  0  0  0  0  0  0  0  0  0  0  0
    2.4831   -6.3692    0.0000 C   0  0  0  0  0  0  0  0  0  0  0  0
    1.4224   -5.3086    0.0000 C   0  0  0  0  0  0  0  0  0  0  0  0
   -0.0265   -5.6968    0.0000 O   0  0  0  0  0  0  0  0  0  0  0  0
    1.8107   -3.8597    0.0000 N   0  0  0  0  0  0  0  0  0  0  0  0
    0.7500   -2.7990    0.0000 C   0  0  0  0  0  0  0  0  0  0  0  0
    0.7500   -1.2990    0.0000 C   0  0  0  0  0  0  0  0  0  0  0  0
    1.5000    0.0000    0.0000 S   0  0  0  0  0  0  0  0  0  0  0  0
    0.7500    1.2990    0.0000 C   0  0  0  0  0  0  0  0  0  0  0  0
   -0.7500    1.2990    0.0000 C   0  0  0  0  0  0  0  0  0  0  0  0
   -1.5000    0.0000    0.0000 C   0  0  0  0  0  0  0  0  0  0  0  0
   -0.7500   -1.2990    0.0000 N   0  0  0  0  0  0  0  0  0  0  0  0
   -0.7500   -2.7990    0.0000 C   0  0  0  0  0  0  0  0  0  0  0  0
   -1.8107   -3.8597    0.0000 O   0  0  0  0  0  0  0  0  0  0  0  0
   -3.0000    0.0000    0.0000 C   0  0  0  0  0  0  0  0  0  0  0  0
   -3.7500   -1.2990    0.0000 O   0  0  0  0  0  0  0  0  0  0  0  0
   -3.7500    1.2990    0.0000 O   0  0  0  0  0  0  0  0  0  0  0  0
   -1.5000    2.5981    0.0000 Cl  0  0  0  0  0  0  0  0  0  0  0  0
    2.0949   -7.8181    0.0000 C   0  0  0  0  0  0  0  0  0  0  0  0
    0.6460   -8.2064    0.0000 C   0  0  0  0  0  0  0  0  0  0  0  0
    0.2577   -9.6553    0.0000 C   0  0  0  0  0  0  0  0  0  0  0  0
    1.3184  -10.7159    0.0000 C   0  0  0  0  0  0  0  0  0  0  0  0
    2.7673  -10.3277    0.0000 C   0  0  0  0  0  0  0  0  0  0  0  0
    3.1555   -8.8788    0.0000 C   0  0  0  0  0  0  0  0  0  0  0  0
  3  2  1  6
  3  4  1  0
  4  5  2  0
  4  6  1  0
  7  6  1  6
  7  8  1  0
  8  9  1  6
  9 10  1  0
 10 11  1  0
 11 12  2  0
 12 13  1  0
 13 14  1  0
 14 15  2  0
 12 16  1  0
 16 17  2  0
 16 18  1  0
 11 19  1  0
  3 20  1  0
 20 21  2  0
 21 22  1  0
 22 23  2  0
 23 24  1  0
 24 25  2  0
 14  7  1  0
 13  8  1  0
 25 20  1  0
M  END
$$$$
675125
     RDKit          2D

 34 34  0  0  0  0  0  0  0  0999 V2000
    4.7500    0.0000    0.0000 O   0  0  0  0  0  0  0  0  0  0  0  0
    3.0000   -5.1962    0.0000 N   0  0  0  0  0  0  0  0  0  0  0  0
    1.5000   -5.1962    0.0000 C   0  0  0  0  0  0  0  0  0  0  0  0
    0.7500   -3.8971    0.0000 C   0  0  0  0  0  0  0  0  0  0  0  0
    1.5000   -2.5981    0.0000 C   0  0  0  0  0  0  0  0  0  0  0  0
    3.0000   -2.5981    0.0000 O   0  0  0  0  0  0  0  0  0  0  0  0
    0.7500   -1.2990    0.0000 N   0  0  0  0  0  0  0  0  0  0  0  0
    1.5000    0.0000    0.0000 C   0  0  0  0  0  0  0  0  0  0  0  0
    0.7500    1.2990    0.0000 C   0  0  0  0  0  0  0  0  0  0  0  0
   -0.7500    1.2990    0.0000 N   0  0  0  0  0  0  0  0  0  0  0  0
   -1.5000    0.0000    0.0000 C   0  0  0  0  0  0  0  0  0  0  0  0
   -0.7500   -1.2990    0.0000 C   0  0  0  0  0  0  0  0  0  0  0  0
   -2.9672    0.3119    0.0000 N   0  0  0  0  0  0  0  0  0  0  0  0
   -3.1240    1.8037    0.0000 N   0  0  0  0  0  0  0  0  0  0  0  0
   -1.7537    2.4138    0.0000 C   0  0  0  0  0  0  0  0  0  0  0  0
   -1.4418    3.8810    0.0000 C   0  0  0  0  0  0  0  0  0  0  0  0
   -1.1300    5.3482    0.0000 F   0  0  0  0  0  0  0  0  0  0  0  0
   -2.9090    4.1928    0.0000 F   0  0  0  0  0  0  0  0  0  0  0  0
    0.0254    3.5691    0.0000 F   0  0  0  0  0  0  0  0  0  0  0  0
    0.7500   -6.4952    0.0000 C   0  0  0  0  0  0  0  0  0  0  0  0
    1.5000   -7.7942    0.0000 C   0  0  0  0  0  0  0  0  0  0  0  0
    0.7500   -9.0933    0.0000 C   0  0  0  0  0  0  0  0  0  0  0  0
    1.5000  -10.3923    0.0000 C   0  0  0  0  0  0  0  0  0  0  0  0
    0.7500  -11.6913    0.0000 F   0  0  0  0  0  0  0  0  0  0  0  0
    3.0000  -10.3923    0.0000 C   0  0  0  0  0  0  0  0  0  0  0  0
    3.7500  -11.6913    0.0000 F   0  0  0  0  0  0  0  0  0  0  0  0
    3.7500   -9.0933    0.0000 C   0  0  0  0  0  0  0  0  0  0  0  0
    3.0000   -7.7942    0.0000 C   0  0  0  0  0  0  0  0  0  0  0  0
    3.7500   -6.4952    0.0000 F   0  0  0  0  0  0  0  0  0  0  0  0
    5.7500    0.0000    0.0000 O   0  0  0  0  0  0  0  0  0  0  0  0
    7.0490    0.7500    0.0000 P   0  0  0  0  0  0  0  0  0  0  0  0
    8.3481    1.5000    0.0000 O   0  0  0  0  0  0  0  0  0  0  0  0
    6.2990    2.0490    0.0000 O   0  0  0  0  0  0  0  0  0  0  0  0
    7.7990   -0.5490    0.0000 O   0  0  0  0  0  0  0  0  0  0  0  0
  3  2  1  6
  3  4  1  0
  4  5  1  0
  5  6  2  0
  5  7  1  0
  7  8  1  0
  8  9  1  0
  9 10  1  0
 10 11  1  0
 11 12  1  0
 11 13  2  0
 13 14  1  0
 14 15  2  0
 15 16  1  0
 16 17  1  0
 16 18  1  0
 16 19  1  0
  3 20  1  0
 20 21  1  0
 21 22  2  0
 22 23  1  0
 23 24  1  0
 23 25  2  0
 25 26  1  0
 25 27  1  0
 27 28  2  0
 28 29  1  0
 30 31  1  0
 31 32  2  0
 31 33  1  0
 31 34  1  0
 12  7  1  0
 15 10  1  0
 28 21  1  0
M  END
$$$$
822010
     RDKit          2D

 18 15  0  0  0  0  0  0  0  0999 V2000
    0.0000    3.5981    0.0000 O   0  0  0  0  0  0  0  0  0  0  0  0
    0.0000    4.5981    0.0000 O   0  0  0  0  0  0  0  0  0  0  0  0
    0.0000    5.5981    0.0000 Cl  0  0  0  0  0  0  0  0  0  0  0  0
    6.0000   -2.5981    0.0000 N   0  0  0  0  0  0  0  0  0  0  0  0
    5.2500   -1.2990    0.0000 C   0  0  0  0  0  0  0  0  0  0  0  0
    6.0000    0.0000    0.0000 N   0  0  0  0  0  0  0  0  0  0  0  0
    3.7500   -1.2990    0.0000 N   0  0  0  0  0  0  0  0  0  0  0  0
    3.0000    0.0000    0.0000 C   0  0  0  0  0  0  0  0  0  0  0  0
    3.7500    1.2990    0.0000 O   0  0  0  0  0  0  0  0  0  0  0  0
    1.5000    0.0000    0.0000 C   0  0  0  0  0  0  0  0  0  0  0  0
    0.7500   -1.2990    0.0000 N   0  0  0  0  0  0  0  0  0  0  0  0
   -0.7500   -1.2990    0.0000 C   0  0  0  0  0  0  0  0  0  0  0  0
   -1.5000   -2.5981    0.0000 Cl  0  0  0  0  0  0  0  0  0  0  0  0
   -1.5000    0.0000    0.0000 C   0  0  0  0  0  0  0  0  0  0  0  0
   -3.0000    0.0000    0.0000 N   0  0  0  0  0  0  0  0  0  0  0  0
   -0.7500    1.2990    0.0000 N   0  0  0  0  0  0  0  0  0  0  0  0
    0.7500    1.2990    0.0000 C   0  0  0  0  0  0  0  0  0  0  0  0
    1.5000    2.5981    0.0000 N   0  0  0  0  0  0  0  0  0  0  0  0
  4  5  1  0
  5  6  2  0
  5  7  1  0
  7  8  1  0
  8  9  2  0
  8 10  1  0
 10 11  2  0
 11 12  1  0
 12 13  1  0
 12 14  2  0
 14 15  1  0
 14 16  1  0
 16 17  2  0
 17 18  1  0
 17 10  1  0
M  END
$$$$
1537155
     RDKit          2D

 55 58  0  0  0  0  0  0  0  0999 V2000
    0.0000   10.0933    0.0000 O   0  0  0  0  0  0  0  0  0  0  0  0
    0.0000   11.0933    0.0000 O   0  0  0  0  0  0  0  0  0  0  0  0
    3.7500   -1.2990    0.0000 C   0  0  0  0  0  0  0  0  0  0  0  0
    3.0000    0.0000    0.0000 O   0  0  0  0  0  0  0  0  0  0  0  0
    1.5000    0.0000    0.0000 C   0  0  0  0  0  0  0  0  0  0  0  0
    0.7500   -1.2990    0.0000 C   0  0  0  0  0  0  0  0  0  0  0  0
   -0.7500   -1.2990    0.0000 C   0  0  0  0  0  0  0  0  0  0  0  0
   -1.5000    0.0000    0.0000 C   0  0  0  0  0  0  0  0  0  0  0  0
   -3.0000    0.0000    0.0000 N   0  0  0  0  0  0  0  0  0  0  0  0
   -3.7500    1.2990    0.0000 C   0  0  0  0  0  0  0  0  0  0  0  0
   -3.0000    2.5981    0.0000 C   0  0  0  0  0  0  0  0  0  0  0  0
   -1.5000    2.5981    0.0000 C   0  0  0  0  0  0  0  0  0  0  0  0
   -0.7500    3.8971    0.0000 C   0  0  0  0  0  0  0  0  0  0  0  0
    0.7500    3.8971    0.0000 O   0  0  0  0  0  0  0  0  0  0  0  0
   -1.5000    5.1962    0.0000 C   0  0  0  0  0  0  0  0  0  0  0  0
   -3.0000    5.1962    0.0000 C   0  0  0  0  0  0  0  0  0  0  0  0
   -3.7500    6.4952    0.0000 C   0  0  0  0  0  0  0  0  0  0  0  0
   -3.0000    7.7942    0.0000 C   0  0  0  0  0  0  0  0  0  0  0  0
   -1.5000    7.7942    0.0000 C   0  0  0  0  0  0  0  0  0  0  0  0
   -0.7500    6.4952    0.0000 N   0  0  0  0  0  0  0  0  0  0  0  0
   -1.5718    6.5456    0.0000 C   0  0  0  0  0  0  0  0  0  0  0  0
   -2.9282    6.5456    0.0000 C   0  0  0  0  0  0  0  0  0  0  0  0
   -3.7500    9.0933    0.0000 C   0  0  0  0  0  0  0  0  0  0  0  0
   -5.2500    9.0933    0.0000 C   0  0  0  0  0  0  0  0  0  0  0  0
   -0.7500    1.2990    0.0000 C   0  0  0  0  0  0  0  0  0  0  0  0
    0.7500    1.2990    0.0000 C   0  0  0  0  0  0  0  0  0  0  0  0
   13.7500   -1.2990    0.0000 C   0  0  0  0  0  0  0  0  0  0  0  0
   13.0000    0.0000    0.0000 O   0  0  0  0  0  0  0  0  0  0  0  0
   11.5000    0.0000    0.0000 C   0  0  0  0  0  0  0  0  0  0  0  0
   10.7500   -1.2990    0.0000 C   0  0  0  0  0  0  0  0  0  0  0  0
    9.2500   -1.2990    0.0000 C   0  0  0  0  0  0  0  0  0  0  0  0
    8.5000    0.0000    0.0000 C   0  0  0  0  0  0  0  0  0  0  0  0
    7.0000    0.0000    0.0000 N   0  0  0  0  0  0  0  0  0  0  0  0
    6.2500    1.2990    0.0000 C   0  0  0  0  0  0  0  0  0  0  0  0
    7.0000    2.5981    0.0000 C   0  0  0  0  0  0  0  0  0  0  0  0
    8.5000    2.5981    0.0000 C   0  0  0  0  0  0  0  0  0  0  0  0
    9.2500    3.8971    0.0000 C   0  0  0  0  0  0  0  0  0  0  0  0
   10.7500    3.8971    0.0000 O   0  0  0  0  0  0  0  0  0  0  0  0
    8.5000    5.1962    0.0000 C   0  0  0  0  0  0  0  0  0  0  0  0
    7.0000    5.1962    0.0000 C   0  0  0  0  0  0  0  0  0  0  0  0
    6.2500    6.4952    0.0000 C   0  0  0  0  0  0  0  0  0  0  0  0
    7.0000    7.7942    0.0000 C   0  0  0  0  0  0  0  0  0  0  0  0
    8.5000    7.7942    0.0000 C   0  0  0  0  0  0  0  0  0  0  0  0
    9.2500    6.4952    0.0000 N   0  0  0  0  0  0  0  0  0  0  0  0
    8.4282    6.5456    0.0000 C   0  0  0  0  0  0  0  0  0  0  0  0
    7.0718    6.5456    0.0000 C   0  0  0  0  0  0  0  0  0  0  0  0
    6.2500    9.0933    0.0000 C   0  0  0  0  0  0  0  0  0  0  0  0
    4.7500    9.0933    0.0000 C   0  0  0  0  0  0  0  0  0  0  0  0
    9.2500    1.2990    0.0000 C   0  0  0  0  0  0  0  0  0  0  0  0
   10.7500    1.2990    0.0000 C   0  0  0  0  0  0  0  0  0  0  0  0
    0.0000   12.6423    0.0000 O   0  0  0  0  0  0  0  0  0  0  0  0
    1.2990   13.3923    0.0000 S   0  0  0  0  0  0  0  0  0  0  0  0
    2.0490   12.0933    0.0000 O   0  0  0  0  0  0  0  0  0  0  0  0
    0.5490   14.6913    0.0000 O   0  0  0  0  0  0  0  0  0  0  0  0
    2.5981   14.1423    0.0000 O   0  0  0  0  0  0  0  0  0  0  0  0
  3  4  1  0
  4  5  1  0
  5  6  2  0
  6  7  1  0
  7  8  2  0
  8  9  1  0
  9 10  2  0
 10 11  1  0
 11 12  2  0
 12 13  1  0
 13 14  1  6
 13 15  1  0
 15 16  1  6
 16 17  1  0
 17 18  1  6
 18 19  1  0
 19 20  1  0
 20 21  1  0
 21 22  1  0
 22 23  1  1
 23 24  2  0
 12 25  1  0
 25 26  2  0
 27 28  1  0
 28 29  1  0
 29 30  2  0
 30 31  1  0
 31 32  2  0
 32 33  1  0
 33 34  2  0
 34 35  1  0
 35 36  2  0
 36 37  1  0
 37 38  1  6
 37 39  1  0
 39 40  1  6
 41 40  1  6
 41 42  1  0
 42 43  1  0
 43 44  1  0
 44 45  1  0
 45 46  1  0
 46 47  1  1
 47 48  2  0
 36 49  1  0
 49 50  2  0
 51 52  1  0
 52 53  2  0
 52 54  2  0
 52 55  1  0
 26  5  1  0
 25  8  1  0
 20 15  1  0
 22 17  1  0
 50 29  1  0
 49 32  1  0
 44 39  1  0
 46 41  1  0
M  END
$$$$
2039153
     RDKit          2D

 55 58  0  0  0  0  0  0  0  0999 V2000
    0.0000   10.0933    0.0000 O   0  0  0  0  0  0  0  0  0  0  0  0
    0.0000   11.0933    0.0000 O   0  0  0  0  0  0  0  0  0  0  0  0
    3.7500   -1.2990    0.0000 C   0  0  0  0  0  0  0  0  0  0  0  0
    3.0000    0.0000    0.0000 O   0  0  0  0  0  0  0  0  0  0  0  0
    1.5000    0.0000    0.0000 C   0  0  0  0  0  0  0  0  0  0  0  0
    0.7500   -1.2990    0.0000 C   0  0  0  0  0  0  0  0  0  0  0  0
   -0.7500   -1.2990    0.0000 C   0  0  0  0  0  0  0  0  0  0  0  0
   -1.5000    0.0000    0.0000 C   0  0  0  0  0  0  0  0  0  0  0  0
   -3.0000    0.0000    0.0000 N   0  0  0  0  0  0  0  0  0  0  0  0
   -3.7500    1.2990    0.0000 C   0  0  0  0  0  0  0  0  0  0  0  0
   -3.0000    2.5981    0.0000 C   0  0  0  0  0  0  0  0  0  0  0  0
   -1.5000    2.5981    0.0000 C   0  0  0  0  0  0  0  0  0  0  0  0
   -0.7500    3.8971    0.0000 C   0  0  0  0  0  0  0  0  0  0  0  0
    0.7500    3.8971    0.0000 O   0  0  0  0  0  0  0  0  0  0  0  0
   -1.5000    5.1962    0.0000 C   0  0  0  0  0  0  0  0  0  0  0  0
   -3.0000    5.1962    0.0000 C   0  0  0  0  0  0  0  0  0  0  0  0
   -3.7500    6.4952    0.0000 C   0  0  0  0  0  0  0  0  0  0  0  0
   -3.0000    7.7942    0.0000 C   0  0  0  0  0  0  0  0  0  0  0  0
   -1.5000    7.7942    0.0000 C   0  0  0  0  0  0  0  0  0  0  0  0
   -0.7500    6.4952    0.0000 N   0  0  0  0  0  0  0  0  0  0  0  0
   -1.5718    6.5456    0.0000 C   0  0  0  0  0  0  0  0  0  0  0  0
   -2.9282    6.5456    0.0000 C   0  0  0  0  0  0  0  0  0  0  0  0
   -3.7500    9.0933    0.0000 C   0  0  0  0  0  0  0  0  0  0  0  0
   -5.2500    9.0933    0.0000 C   0  0  0  0  0  0  0  0  0  0  0  0
   -0.7500    1.2990    0.0000 C   0  0  0  0  0  0  0  0  0  0  0  0
    0.7500    1.2990    0.0000 C   0  0  0  0  0  0  0  0  0  0  0  0
   13.7500   -1.2990    0.0000 C   0  0  0  0  0  0  0  0  0  0  0  0
   13.0000    0.0000    0.0000 O   0  0  0  0  0  0  0  0  0  0  0  0
   11.5000    0.0000    0.0000 C   0  0  0  0  0  0  0  0  0  0  0  0
   10.7500   -1.2990    0.0000 C   0  0  0  0  0  0  0  0  0  0  0  0
    9.2500   -1.2990    0.0000 C   0  0  0  0  0  0  0  0  0  0  0  0
    8.5000    0.0000    0.0000 C   0  0  0  0  0  0  0  0  0  0  0  0
    7.0000    0.0000    0.0000 N   0  0  0  0  0  0  0  0  0  0  0  0
    6.2500    1.2990    0.0000 C   0  0  0  0  0  0  0  0  0  0  0  0
    7.0000    2.5981    0.0000 C   0  0  0  0  0  0  0  0  0  0  0  0
    8.5000    2.5981    0.0000 C   0  0  0  0  0  0  0  0  0  0  0  0
    9.2500    3.8971    0.0000 C   0  0  0  0  0  0  0  0  0  0  0  0
   10.7500    3.8971    0.0000 O   0  0  0  0  0  0  0  0  0  0  0  0
    8.5000    5.1962    0.0000 C   0  0  0  0  0  0  0  0  0  0  0  0
    7.0000    5.1962    0.0000 C   0  0  0  0  0  0  0  0  0  0  0  0
    6.2500    6.4952    0.0000 C   0  0  0  0  0  0  0  0  0  0  0  0
    7.0000    7.7942    0.0000 C   0  0  0  0  0  0  0  0  0  0  0  0
    8.5000    7.7942    0.0000 C   0  0  0  0  0  0  0  0  0  0  0  0
    9.2500    6.4952    0.0000 N   0  0  0  0  0  0  0  0  0  0  0  0
    8.4282    6.5456    0.0000 C   0  0  0  0  0  0  0  0  0  0  0  0
    7.0718    6.5456    0.0000 C   0  0  0  0  0  0  0  0  0  0  0  0
    6.2500    9.0933    0.0000 C   0  0  0  0  0  0  0  0  0  0  0  0
    4.7500    9.0933    0.0000 C   0  0  0  0  0  0  0  0  0  0  0  0
    9.2500    1.2990    0.0000 C   0  0  0  0  0  0  0  0  0  0  0  0
   10.7500    1.2990    0.0000 C   0  0  0  0  0  0  0  0  0  0  0  0
    0.0000   12.6423    0.0000 O   0  0  0  0  0  0  0  0  0  0  0  0
    1.2990   13.3923    0.0000 S   0  0  0  0  0  0  0  0  0  0  0  0
    2.0490   12.0933    0.0000 O   0  0  0  0  0  0  0  0  0  0  0  0
    0.5490   14.6913    0.0000 O   0  0  0  0  0  0  0  0  0  0  0  0
    2.5981   14.1423    0.0000 O   0  0  0  0  0  0  0  0  0  0  0  0
  3  4  1  0
  4  5  1  0
  5  6  2  0
  6  7  1  0
  7  8  2  0
  8  9  1  0
  9 10  2  0
 10 11  1  0
 11 12  2  0
 12 13  1  0
 13 14  1  1
 13 15  1  0
 15 16  1  1
 16 17  1  0
 17 18  1  6
 18 19  1  0
 19 20  1  0
 20 21  1  0
 21 22  1  0
 22 23  1  1
 23 24  2  0
 12 25  1  0
 25 26  2  0
 27 28  1  0
 28 29  1  0
 29 30  2  0
 30 31  1  0
 31 32  2  0
 32 33  1  0
 33 34  2  0
 34 35  1  0
 35 36  2  0
 36 37  1  0
 37 38  1  1
 37 39  1  0
 39 40  1  1
 41 40  1  6
 41 42  1  0
 42 43  1  0
 43 44  1  0
 44 45  1  0
 45 46  1  0
 46 47  1  1
 47 48  2  0
 36 49  1  0
 49 50  2  0
 51 52  1  0
 52 53  2  0
 52 54  2  0
 52 55  1  0
 26  5  1  0
 25  8  1  0
 20 15  1  0
 22 17  1  0
 50 29  1  0
 49 32  1  0
 44 39  1  0
 46 41  1  0
M  END
$$$$
1376014
     RDKit          2D

 52 54  0  0  0  0  0  0  0  0999 V2000
    4.0000    0.0000    0.0000 O   0  0  0  0  0  0  0  0  0  0  0  0
    5.0000    0.0000    0.0000 O   0  0  0  0  0  0  0  0  0  0  0  0
    6.0000    0.0000    0.0000 O   0  0  0  0  0  0  0  0  0  0  0  0
    7.0000    0.0000    0.0000 O   0  0  0  0  0  0  0  0  0  0  0  0
    8.0000    0.0000    0.0000 O   0  0  0  0  0  0  0  0  0  0  0  0
    3.0000    0.0000    0.0000 C   0  0  0  0  0  0  0  0  0  0  0  0
    0.8000   -0.0000    0.0000 N   0  0  0  0  0  0  0  0  0  0  0  0
    0.4000   -0.6928    0.0000 C   0  0  0  0  0  0  0  0  0  0  0  0
   -0.4000   -0.6928    0.0000 C   0  0  0  0  0  0  0  0  0  0  0  0
   -1.5000    0.0000    0.0000 C   0  0  0  0  0  0  0  0  0  0  0  0
   -3.0000    0.0000    0.0000 C   0  0  0  0  0  0  0  0  0  0  0  0
   -3.4635   -1.4266    0.0000 O   0  0  0  0  0  0  0  0  0  0  0  0
   -2.2500   -2.3083    0.0000 C   0  0  0  0  0  0  0  0  0  0  0  0
   -2.0932   -3.8000    0.0000 C   0  0  0  0  0  0  0  0  0  0  0  0
   -3.3067   -4.6817    0.0000 O   0  0  0  0  0  0  0  0  0  0  0  0
   -0.7229   -4.4102    0.0000 C   0  0  0  0  0  0  0  0  0  0  0  0
    0.4906   -3.5285    0.0000 C   0  0  0  0  0  0  0  0  0  0  0  0
    0.3338   -2.0367    0.0000 C   0  0  0  0  0  0  0  0  0  0  0  0
   -0.1550    0.1028    0.0000 C   0  0  0  0  0  0  0  0  0  0  0  0
    0.7500    1.2990    0.0000 C   0  0  0  0  0  0  0  0  0  0  0  0
   -0.7500    1.2990    0.0000 C   0  0  0  0  0  0  0  0  0  0  0  0
   -1.5000    2.5981    0.0000 C   0  0  0  0  0  0  0  0  0  0  0  0
   -3.0000    2.5981    0.0000 C   0  0  0  0  0  0  0  0  0  0  0  0
   -3.7500    1.2990    0.0000 C   0  0  0  0  0  0  0  0  0  0  0  0
   -5.2500    1.2990    0.0000 O   0  0  0  0  0  0  0  0  0  0  0  0
   -1.0365   -1.4266    0.0000 C   0  0  0  0  0  0  0  0  0  0  0  0
    3.0000    8.2798    0.0000 C   0  0  0  0  0  0  0  0  0  0  0  0
    0.8000    8.2798    0.0000 N   0  0  0  0  0  0  0  0  0  0  0  0
    0.4000    7.5870    0.0000 C   0  0  0  0  0  0  0  0  0  0  0  0
   -0.4000    7.5870    0.0000 C   0  0  0  0  0  0  0  0  0  0  0  0
   -1.5000    8.2798    0.0000 C   0  0  0  0  0  0  0  0  0  0  0  0
   -3.0000    8.2798    0.0000 C   0  0  0  0  0  0  0  0  0  0  0  0
   -3.4635    6.8532    0.0000 O   0  0  0  0  0  0  0  0  0  0  0  0
   -2.2500    5.9715    0.0000 C   0  0  0  0  0  0  0  0  0  0  0  0
   -2.0932    4.4798    0.0000 C   0  0  0  0  0  0  0  0  0  0  0  0
   -3.3067    3.5981    0.0000 O   0  0  0  0  0  0  0  0  0  0  0  0
   -0.7229    3.8696    0.0000 C   0  0  0  0  0  0  0  0  0  0  0  0
    0.4906    4.7513    0.0000 C   0  0  0  0  0  0  0  0  0  0  0  0
    0.3338    6.2431    0.0000 C   0  0  0  0  0  0  0  0  0  0  0  0
   -0.1550    8.3826    0.0000 C   0  0  0  0  0  0  0  0  0  0  0  0
    0.7500    9.5788    0.0000 C   0  0  0  0  0  0  0  0  0  0  0  0
   -0.7500    9.5788    0.0000 C   0  0  0  0  0  0  0  0  0  0  0  0
   -1.5000   10.8779    0.0000 C   0  0  0  0  0  0  0  0  0  0  0  0
   -3.0000   10.8779    0.0000 C   0  0  0  0  0  0  0  0  0  0  0  0
   -3.7500    9.5788    0.0000 C   0  0  0  0  0  0  0  0  0  0  0  0
   -5.2500    9.5788    0.0000 O   0  0  0  0  0  0  0  0  0  0  0  0
   -1.0365    6.8532    0.0000 C   0  0  0  0  0  0  0  0  0  0  0  0
    9.0000    0.0000    0.0000 O   0  0  0  0  0  0  0  0  0  0  0  0
   10.2990    0.7500    0.0000 S   0  0  0  0  0  0  0  0  0  0  0  0
   11.0490   -0.5490    0.0000 O   0  0  0  0  0  0  0  0  0  0  0  0
    9.5490    2.0490    0.0000 O   0  0  0  0  0  0  0  0  0  0  0  0
   11.5981    1.5000    0.0000 O   0  0  0  0  0  0  0  0  0  0  0  0
  6  7  1  0
  7  8  1  0
  8  9  1  0
 10  9  1  6
 10 11  1  0
 11 12  1  1
 12 13  1  0
 13 14  2  0
 14 15  1  0
 14 16  1  0
 16 17  2  0
 17 18  1  0
 18 19  1  0
 20 19  1  1
 20 21  1  0
 21 22  1  1
 22 23  2  0
 23 24  1  0
 24 25  1  1
 18 26  2  0
 27 28  1  0
 28 29  1  0
 29 30  1  0
 31 30  1  6
 31 32  1  0
 32 33  1  1
 33 34  1  0
 34 35  2  0
 35 36  1  0
 35 37  1  0
 37 38  2  0
 38 39  1  0
 39 40  1  0
 41 40  1  1
 41 42  1  0
 42 43  1  1
 43 44  2  0
 44 45  1  0
 45 46  1  1
 39 47  2  0
 48 49  1  0
 49 50  2  0
 49 51  2  0
 49 52  1  0
 20  7  1  0
 21 10  1  0
 26 10  1  0
 24 11  1  0
 26 13  1  0
 41 28  1  0
 42 31  1  0
 47 31  1  0
 45 32  1  0
 47 34  1  0
M  END
$$$$
1418091
     RDKit          2D

 53 52  0  0  0  0  0  0  0  0999 V2000
    4.7500    0.0000    0.0000 O   0  0  0  0  0  0  0  0  0  0  0  0
    5.7500    0.0000    0.0000 O   0  0  0  0  0  0  0  0  0  0  0  0
    6.7500    0.0000    0.0000 O   0  0  0  0  0  0  0  0  0  0  0  0
    7.7500    0.0000    0.0000 O   0  0  0  0  0  0  0  0  0  0  0  0
    8.7500    0.0000    0.0000 Sr  0  0  0  0  0 15  0  0  0  0  0  0
    3.7500   -1.2990    0.0000 C   0  0  0  0  0  0  0  0  0  0  0  0
    3.0000    0.0000    0.0000 O   0  0  0  0  0  0  0  0  0  0  0  0
    1.5000    0.0000    0.0000 C   0  0  0  0  0  0  0  0  0  0  0  0
    0.7500   -1.2990    0.0000 C   0  0  0  0  0  0  0  0  0  0  0  0
   -0.7500   -1.2990    0.0000 C   0  0  0  0  0  0  0  0  0  0  0  0
   -1.5000    0.0000    0.0000 C   0  0  0  0  0  0  0  0  0  0  0  0
   -2.9672    0.3119    0.0000 N   0  0  0  0  0  2  0  0  0  0  0  0
   -3.1240    1.8037    0.0000 C   0  0  0  0  0  0  0  0  0  0  0  0
   -1.7537    2.4138    0.0000 N   0  0  0  0  0  0  0  0  0  0  0  0
   -0.7500    1.2990    0.0000 C   0  0  0  0  0  0  0  0  0  0  0  0
    0.7500    1.2990    0.0000 C   0  0  0  0  0  0  0  0  0  0  0  0
   -4.4231    2.5537    0.0000 S   0  0  0  0  0  3  0  0  0  0  0  0
   -5.7221    1.8037    0.0000 O   0  0  0  0  0  1  0  0  0  0  0  0
   -4.4231    4.0537    0.0000 C   0  0  0  0  0  0  0  0  0  0  0  0
   -5.7221    4.8037    0.0000 C   0  0  0  0  0  0  0  0  0  0  0  0
   -5.7221    6.3037    0.0000 N   0  0  0  0  0  0  0  0  0  0  0  0
   -7.0211    7.0537    0.0000 C   0  0  0  0  0  0  0  0  0  0  0  0
   -8.3202    6.3037    0.0000 C   0  0  0  0  0  0  0  0  0  0  0  0
   -9.6192    7.0537    0.0000 C   0  0  0  0  0  0  0  0  0  0  0  0
   -8.3202    4.8037    0.0000 C   0  0  0  0  0  0  0  0  0  0  0  0
   -9.6192    4.0537    0.0000 O   0  0  0  0  0  0  0  0  0  0  0  0
   -9.6192    2.5537    0.0000 C   0  0  0  0  0  0  0  0  0  0  0  0
   -7.0211    4.0537    0.0000 C   0  0  0  0  0  0  0  0  0  0  0  0
   -7.0211    2.5537    0.0000 C   0  0  0  0  0  0  0  0  0  0  0  0
    3.7500    8.0537    0.0000 C   0  0  0  0  0  0  0  0  0  0  0  0
    3.0000    9.3527    0.0000 O   0  0  0  0  0  0  0  0  0  0  0  0
    1.5000    9.3527    0.0000 C   0  0  0  0  0  0  0  0  0  0  0  0
    0.7500    8.0537    0.0000 C   0  0  0  0  0  0  0  0  0  0  0  0
   -0.7500    8.0537    0.0000 C   0  0  0  0  0  0  0  0  0  0  0  0
   -1.5000    9.3527    0.0000 C   0  0  0  0  0  0  0  0  0  0  0  0
   -2.9672    9.6646    0.0000 N   0  0  0  0  0  2  0  0  0  0  0  0
   -3.1240   11.1563    0.0000 C   0  0  0  0  0  0  0  0  0  0  0  0
   -1.7537   11.7664    0.0000 N   0  0  0  0  0  0  0  0  0  0  0  0
   -0.7500   10.6517    0.0000 C   0  0  0  0  0  0  0  0  0  0  0  0
    0.7500   10.6517    0.0000 C   0  0  0  0  0  0  0  0  0  0  0  0
   -4.4231   11.9063    0.0000 S   0  0  0  0  0  3  0  0  0  0  0  0
   -5.7221   11.1563    0.0000 O   0  0  0  0  0  1  0  0  0  0  0  0
   -4.4231   13.4063    0.0000 C   0  0  0  0  0  0  0  0  0  0  0  0
   -5.7221   14.1563    0.0000 C   0  0  0  0  0  0  0  0  0  0  0  0
   -5.7221   15.6563    0.0000 N   0  0  0  0  0  0  0  0  0  0  0  0
   -7.0211   16.4063    0.0000 C   0  0  0  0  0  0  0  0  0  0  0  0
   -8.3202   15.6563    0.0000 C   0  0  0  0  0  0  0  0  0  0  0  0
   -9.6192   16.4063    0.0000 C   0  0  0  0  0  0  0  0  0  0  0  0
   -8.3202   14.1563    0.0000 C   0  0  0  0  0  0  0  0  0  0  0  0
   -9.6192   13.4063    0.0000 O   0  0  0  0  0  0  0  0  0  0  0  0
   -9.6192   11.9063    0.0000 C   0  0  0  0  0  0  0  0  0  0  0  0
   -7.0211   13.4063    0.0000 C   0  0  0  0  0  0  0  0  0  0  0  0
   -7.0211   11.9063    0.0000 C   0  0  0  0  0  0  0  0  0  0  0  0
  6  7  1  0
  7  8  1  0
  8  9  2  0
  9 10  1  0
 10 11  2  0
 11 12  1  0
 12 13  1  0
 13 14  2  0
 14 15  1  0
 15 16  2  0
 13 17  1  0
 17 18  1  0
 17 19  1  0
 19 20  1  0
 20 21  2  0
 21 22  1  0
 22 23  2  0
 23 24  1  0
 23 25  1  0
 25 26  1  0
 26 27  1  0
 25 28  2  0
 28 29  1  0
 30 31  1  0
 31 32  1  0
 32 33  2  0
 33 34  1  0
 34 35  2  0
 35 36  1  0
 36 37  1  0
 37 38  2  0
 38 39  1  0
 39 40  2  0
 37 41  1  0
 41 42  1  0
 41 43  1  0
 43 44  1  0
 44 45  2  0
 45 46  1  0
 46 47  2  0
 47 48  1  0
 47 49  1  0
 49 50  1  0
 50 51  1  0
 49 52  2  0
 52 53  1  0
 16  8  1  0
 15 11  1  0
 28 20  1  0
 40 32  1  0
 39 35  1  0
 52 44  1  0
M  CHG  7   5   2  12  -1  17   1  18  -1  36  -1  41   1  42  -1
M  END
$$$$
1376006
     RDKit          2D

 39 38  0  0  0  0  0  0  0  0999 V2000
    0.0000    7.4952    0.0000 O   0  0  0  0  0  0  0  0  0  0  0  0
    0.0000    8.4952    0.0000 O   0  0  0  0  0  0  0  0  0  0  0  0
    0.0000    9.4952    0.0000 Ca  0  0  0  0  0 15  0  0  0  0  0  0
    3.7500   -1.2990    0.0000 C   0  0  0  0  0  0  0  0  0  0  0  0
    3.0000    0.0000    0.0000 C   0  0  0  0  0  0  0  0  0  0  0  0
    3.7500    1.2990    0.0000 C   0  0  0  0  0  0  0  0  0  0  0  0
    3.0000    2.5981    0.0000 O   0  0  0  0  0  0  0  0  0  0  0  0
    5.2500    1.2990    0.0000 O   0  0  0  0  0  1  0  0  0  0  0  0
    1.5000    0.0000    0.0000 C   0  0  0  0  0  0  0  0  0  0  0  0
    0.7500   -1.2990    0.0000 C   0  0  0  0  0  0  0  0  0  0  0  0
   -0.7500   -1.2990    0.0000 C   0  0  0  0  0  0  0  0  0  0  0  0
   -1.5000    0.0000    0.0000 C   0  0  0  0  0  0  0  0  0  0  0  0
   -0.7500    1.2990    0.0000 C   0  0  0  0  0  0  0  0  0  0  0  0
   -1.5000    2.5981    0.0000 O   0  0  0  0  0  0  0  0  0  0  0  0
   -0.7500    3.8971    0.0000 C   0  0  0  0  0  0  0  0  0  0  0  0
    0.7500    3.8971    0.0000 C   0  0  0  0  0  0  0  0  0  0  0  0
    1.5000    5.1962    0.0000 C   0  0  0  0  0  0  0  0  0  0  0  0
    0.7500    6.4952    0.0000 C   0  0  0  0  0  0  0  0  0  0  0  0
   -0.7500    6.4952    0.0000 C   0  0  0  0  0  0  0  0  0  0  0  0
   -1.5000    5.1962    0.0000 C   0  0  0  0  0  0  0  0  0  0  0  0
    0.7500    1.2990    0.0000 C   0  0  0  0  0  0  0  0  0  0  0  0
   11.5000   -1.2990    0.0000 C   0  0  0  0  0  0  0  0  0  0  0  0
   10.7500    0.0000    0.0000 C   0  0  0  0  0  0  0  0  0  0  0  0
   11.5000    1.2990    0.0000 C   0  0  0  0  0  0  0  0  0  0  0  0
   10.7500    2.5981    0.0000 O   0  0  0  0  0  0  0  0  0  0  0  0
   13.0000    1.2990    0.0000 O   0  0  0  0  0  1  0  0  0  0  0  0
    9.2500    0.0000    0.0000 C   0  0  0  0  0  0  0  0  0  0  0  0
    8.5000   -1.2990    0.0000 C   0  0  0  0  0  0  0  0  0  0  0  0
    7.0000   -1.2990    0.0000 C   0  0  0  0  0  0  0  0  0  0  0  0
    6.2500    0.0000    0.0000 C   0  0  0  0  0  0  0  0  0  0  0  0
    7.0000    1.2990    0.0000 C   0  0  0  0  0  0  0  0  0  0  0  0
    6.2500    2.5981    0.0000 O   0  0  0  0  0  0  0  0  0  0  0  0
    7.0000    3.8971    0.0000 C   0  0  0  0  0  0  0  0  0  0  0  0
    8.5000    3.8971    0.0000 C   0  0  0  0  0  0  0  0  0  0  0  0
    9.2500    5.1962    0.0000 C   0  0  0  0  0  0  0  0  0  0  0  0
    8.5000    6.4952    0.0000 C   0  0  0  0  0  0  0  0  0  0  0  0
    7.0000    6.4952    0.0000 C   0  0  0  0  0  0  0  0  0  0  0  0
    6.2500    5.1962    0.0000 C   0  0  0  0  0  0  0  0  0  0  0  0
    8.5000    1.2990    0.0000 C   0  0  0  0  0  0  0  0  0  0  0  0
  4  5  1  0
  5  6  1  0
  6  7  2  0
  6  8  1  0
  5  9  1  0
  9 10  2  0
 10 11  1  0
 11 12  2  0
 12 13  1  0
 13 14  1  0
 14 15  1  0
 15 16  2  0
 16 17  1  0
 17 18  2  0
 18 19  1  0
 19 20  2  0
 13 21  2  0
 22 23  1  0
 23 24  1  0
 24 25  2  0
 24 26  1  0
 23 27  1  0
 27 28  2  0
 28 29  1  0
 29 30  2  0
 30 31  1  0
 31 32  1  0
 32 33  1  0
 33 34  2  0
 34 35  1  0
 35 36  2  0
 36 37  1  0
 37 38  2  0
 31 39  2  0
 21  9  1  0
 20 15  1  0
 39 27  1  0
 38 33  1  0
M  CHG  3   3   2   8  -1  26  -1
M  END
$$$$
1369655
     RDKit          2D

 14 11  0  0  0  0  0  0  0  0999 V2000
    0.0000    3.5981    0.0000 O   0  0  0  0  0  0  0  0  0  0  0  0
    0.0000    4.5981    0.0000 O   0  0  0  0  0  0  0  0  0  0  0  0
    0.0000    5.5981    0.0000 Na  0  0  0  0  0 15  0  0  0  0  0  0
    3.0000    0.0000    0.0000 N   0  0  0  0  0  0  0  0  0  0  0  0
    1.5000    0.0000    0.0000 C   0  0  0  0  0  0  0  0  0  0  0  0
    0.7500   -1.2990    0.0000 C   0  0  0  0  0  0  0  0  0  0  0  0
   -0.7500   -1.2990    0.0000 C   0  0  0  0  0  0  0  0  0  0  0  0
   -1.5000    0.0000    0.0000 C   0  0  0  0  0  0  0  0  0  0  0  0
   -3.0000    0.0000    0.0000 C   0  0  0  0  0  0  0  0  0  0  0  0
   -3.7500   -1.2990    0.0000 O   0  0  0  0  0  0  0  0  0  0  0  0
   -3.7500    1.2990    0.0000 O   0  0  0  0  0  1  0  0  0  0  0  0
   -0.7500    1.2990    0.0000 C   0  0  0  0  0  0  0  0  0  0  0  0
   -1.5000    2.5981    0.0000 O   0  0  0  0  0  0  0  0  0  0  0  0
    0.7500    1.2990    0.0000 C   0  0  0  0  0  0  0  0  0  0  0  0
  4  5  1  0
  5  6  2  0
  6  7  1  0
  7  8  2  0
  8  9  1  0
  9 10  2  0
  9 11  1  0
  8 12  1  0
 12 13  1  0
 12 14  2  0
 14  5  1  0
M  CHG  2   3   1  11  -1
M  END
$$$$
699419
     RDKit          2D

 24 24  0  0  0  0  0  0  0  0999 V2000
    4.7500    0.0000    0.0000 O   0  0  0  0  0  0  0  0  0  0  0  0
    3.7500   -1.2990    0.0000 O   0  0  0  0  0  0  0  0  0  0  0  0
    3.0000    0.0000    0.0000 C   0  0  0  0  0  0  0  0  0  0  0  0
    1.5000    0.0000    0.0000 C   0  0  0  0  0  0  0  0  0  0  0  0
    0.7500   -1.2990    0.0000 O   0  0  0  0  0  0  0  0  0  0  0  0
   -0.7500   -1.2990    0.0000 C   0  0  0  0  0  0  0  0  0  0  0  0
   -1.5000   -2.5981    0.0000 O   0  0  0  0  0  0  0  0  0  0  0  0
   -0.7500   -3.8971    0.0000 C   0  0  0  0  0  0  0  0  0  0  0  0
    0.7418   -4.0539    0.0000 C   0  0  0  0  0  0  0  0  0  0  0  0
    1.7455   -2.9392    0.0000 C   0  0  0  0  0  0  0  0  0  0  0  0
    3.2127   -3.2511    0.0000 O   0  0  0  0  0  0  0  0  0  0  0  0
    1.0537   -5.5211    0.0000 O   0  0  0  0  0  0  0  0  0  0  0  0
   -0.2454   -6.2711    0.0000 C   0  0  0  0  0  0  0  0  0  0  0  0
   -1.3601   -7.2748    0.0000 O   0  0  0  0  0  0  0  0  0  0  0  0
    0.6363   -7.4847    0.0000 C   0  0  0  0  0  0  0  0  0  0  0  0
    0.0262   -8.8550    0.0000 O   0  0  0  0  0  0  0  0  0  0  0  0
   -1.3601   -5.2674    0.0000 C   0  0  0  0  0  0  0  0  0  0  0  0
   -2.8273   -5.5793    0.0000 O   0  0  0  0  0  0  0  0  0  0  0  0
   -1.5000    0.0000    0.0000 C   0  0  0  0  0  0  0  0  0  0  0  0
   -3.0000    0.0000    0.0000 O   0  0  0  0  0  0  0  0  0  0  0  0
   -0.7500    1.2990    0.0000 C   0  0  0  0  0  0  0  0  0  0  0  0
   -1.5000    2.5981    0.0000 O   0  0  0  0  0  0  0  0  0  0  0  0
    0.7500    1.2990    0.0000 C   0  0  0  0  0  0  0  0  0  0  0  0
    1.5000    2.5981    0.0000 O   0  0  0  0  0  0  0  0  0  0  0  0
  2  3  1  0
  4  3  1  1
  4  5  1  0
  5  6  1  0
  6  7  1  1
  8  7  1  6
  8  9  1  0
  9 10  1  1
 10 11  1  0
  9 12  1  0
 12 13  1  0
 13 14  1  1
 13 15  1  0
 15 16  1  0
 13 17  1  0
 17 18  1  1
  6 19  1  0
 19 20  1  6
 19 21  1  0
 21 22  1  1
 21 23  1  0
 23 24  1  1
 23  4  1  0
 17  8  1  0
M  END
$$$$
674702
     RDKit          2D

 11 11  0  0  0  0  0  0  0  0999 V2000
    2.2760    0.0000    0.0000 O   0  0  0  0  0  0  0  0  0  0  0  0
   -3.5736    1.2902    0.0000 S   0  0  0  0  0  0  0  0  0  0  0  0
   -2.1470    1.7537    0.0000 C   0  0  0  0  0  0  0  0  0  0  0  0
   -1.8351    3.2209    0.0000 N   0  0  0  0  0  0  0  0  0  0  0  0
   -0.4086    3.6844    0.0000 C   0  0  0  0  0  0  0  0  0  0  0  0
    0.7062    2.6807    0.0000 N   0  0  0  0  0  0  0  0  0  0  0  0
    0.3943    1.2135    0.0000 C   0  0  0  0  0  0  0  0  0  0  0  0
    1.2760    0.0000    0.0000 N   0  0  0  0  0  0  0  0  0  0  0  0
    0.3943   -1.2135    0.0000 C   0  0  0  0  0  0  0  0  0  0  0  0
   -1.0323   -0.7500    0.0000 N   0  0  0  0  0  0  0  0  0  0  0  0
   -1.0323    0.7500    0.0000 C   0  0  0  0  0  0  0  0  0  0  0  0
  2  3  1  0
  3  4  2  0
  4  5  1  0
  5  6  2  0
  6  7  1  0
  7  8  1  0
  8  9  2  0
  9 10  1  0
 10 11  1  0
 11  3  1  0
 11  7  2  0
M  END
$$$$
674407
     RDKit          2D

  7  4  0  0  0  0  0  0  0  0999 V2000
    0.0000    0.0000    0.0000 O   0  0  0  0  0  0  0  0  0  0  0  0
    0.0000    1.0000    0.0000 Mg  0  0  0  0  0 15  0  0  0  0  0  0
    1.0000    0.0000    0.0000 O   0  0  0  0  0  1  0  0  0  0  0  0
    2.2990    0.7500    0.0000 S   0  0  0  0  0  0  0  0  0  0  0  0
    3.0490   -0.5490    0.0000 O   0  0  0  0  0  0  0  0  0  0  0  0
    1.5490    2.0490    0.0000 O   0  0  0  0  0  0  0  0  0  0  0  0
    3.5981    1.5000    0.0000 O   0  0  0  0  0  1  0  0  0  0  0  0
  3  4  1  0
  4  5  2  0
  4  6  2  0
  4  7  1  0
M  CHG  3   2   2   3  -1   7  -1
M  END
$$$$
674652
     RDKit          2D

 32 33  0  0  0  0  0  0  0  0999 V2000
    0.0000    8.7888    0.0000 O   0  0  0  0  0  0  0  0  0  0  0  0
    8.8424    0.0000    0.0000 Na  0  0  0  0  0 15  0  0  0  0  0  0
    0.6282    6.9628    0.0000 C   0  0  0  0  0  0  0  0  0  0  0  0
    2.1097    6.7281    0.0000 C   0  0  0  0  0  0  0  0  0  0  0  0
    3.1704    7.7888    0.0000 O   0  0  0  0  0  0  0  0  0  0  0  0
    4.5069    7.1078    0.0000 N   0  0  0  0  0  0  0  0  0  0  0  0
    4.2722    5.6263    0.0000 C   0  0  0  0  0  0  0  0  0  0  0  0
    2.7907    5.3916    0.0000 C   0  0  0  0  0  0  0  0  0  0  0  0
    2.1097    4.0551    0.0000 C   0  0  0  0  0  0  0  0  0  0  0  0
    2.7015    2.8417    0.0000 O   0  0  0  0  0  0  0  0  0  0  0  0
    0.6118    3.9766    0.0000 N   0  0  0  0  0  0  0  0  0  0  0  0
   -0.0692    2.6401    0.0000 C   0  0  0  0  0  0  0  0  0  0  0  0
    0.3943    1.2135    0.0000 C   0  0  0  0  0  0  0  0  0  0  0  0
    1.2760    0.0000    0.0000 S   0  0  0  0  0  0  0  0  0  0  0  0
    0.3943   -1.2135    0.0000 C   0  0  0  0  0  0  0  0  0  0  0  0
    1.6933   -1.9635    0.0000 C   0  0  0  0  0  0  0  0  0  0  0  0
   -0.2158   -2.5838    0.0000 C   0  0  0  0  0  0  0  0  0  0  0  0
   -1.0323   -0.7500    0.0000 C   0  0  0  0  0  0  0  0  0  0  0  0
   -1.0323    0.7500    0.0000 N   0  0  0  0  0  0  0  0  0  0  0  0
   -1.4958    2.1766    0.0000 C   0  0  0  0  0  0  0  0  0  0  0  0
   -2.8323    2.8576    0.0000 O   0  0  0  0  0  0  0  0  0  0  0  0
   -2.2458   -1.6317    0.0000 C   0  0  0  0  0  0  0  0  0  0  0  0
   -2.0890   -3.1235    0.0000 O   0  0  0  0  0  0  0  0  0  0  0  0
   -3.6161   -1.0216    0.0000 O   0  0  0  0  0  1  0  0  0  0  0  0
    5.3329    4.5656    0.0000 C   0  0  0  0  0  0  0  0  0  0  0  0
    4.9447    3.1167    0.0000 C   0  0  0  0  0  0  0  0  0  0  0  0
    3.6930    2.6110    0.0000 Cl  0  0  0  0  0  0  0  0  0  0  0  0
    6.0053    2.0561    0.0000 C   0  0  0  0  0  0  0  0  0  0  0  0
    7.4542    2.4443    0.0000 C   0  0  0  0  0  0  0  0  0  0  0  0
    7.8424    3.8932    0.0000 C   0  0  0  0  0  0  0  0  0  0  0  0
    6.7818    4.9539    0.0000 C   0  0  0  0  0  0  0  0  0  0  0  0
    7.1700    6.4027    0.0000 Cl  0  0  0  0  0  0  0  0  0  0  0  0
  3  4  1  0
  4  5  1  0
  5  6  1  0
  6  7  2  0
  7  8  1  0
  8  9  1  0
  9 10  2  0
  9 11  1  0
 12 11  1  1
 12 13  1  0
 13 14  1  1
 14 15  1  0
 15 16  1  0
 15 17  1  0
 15 18  1  0
 18 19  1  0
 19 20  1  0
 20 21  2  0
 18 22  1  6
 22 23  2  0
 22 24  1  0
  7 25  1  0
 25 26  2  0
 26 27  1  0
 26 28  1  0
 28 29  2  0
 29 30  1  0
 30 31  2  0
 31 32  1  0
  8  4  2  0
 20 12  1  0
 19 13  1  0
 31 25  1  0
M  CHG  2   2   1  24  -1
M  END
$$$$
674339
     RDKit          2D

 31 32  0  0  0  0  0  0  0  0999 V2000
    0.0000    8.7888    0.0000 O   0  0  0  0  0  0  0  0  0  0  0  0
    8.8424    0.0000    0.0000 Na  0  0  0  0  0 15  0  0  0  0  0  0
    0.6282    6.9628    0.0000 C   0  0  0  0  0  0  0  0  0  0  0  0
    2.1097    6.7281    0.0000 C   0  0  0  0  0  0  0  0  0  0  0  0
    3.1704    7.7888    0.0000 O   0  0  0  0  0  0  0  0  0  0  0  0
    4.5069    7.1078    0.0000 N   0  0  0  0  0  0  0  0  0  0  0  0
    4.2722    5.6263    0.0000 C   0  0  0  0  0  0  0  0  0  0  0  0
    5.3329    4.5656    0.0000 C   0  0  0  0  0  0  0  0  0  0  0  0
    4.9447    3.1167    0.0000 C   0  0  0  0  0  0  0  0  0  0  0  0
    6.0053    2.0561    0.0000 C   0  0  0  0  0  0  0  0  0  0  0  0
    7.4542    2.4443    0.0000 C   0  0  0  0  0  0  0  0  0  0  0  0
    7.8424    3.8932    0.0000 C   0  0  0  0  0  0  0  0  0  0  0  0
    6.7818    4.9539    0.0000 C   0  0  0  0  0  0  0  0  0  0  0  0
    7.1700    6.4027    0.0000 Cl  0  0  0  0  0  0  0  0  0  0  0  0
    2.7907    5.3916    0.0000 C   0  0  0  0  0  0  0  0  0  0  0  0
    2.1097    4.0551    0.0000 C   0  0  0  0  0  0  0  0  0  0  0  0
    2.9267    2.7971    0.0000 O   0  0  0  0  0  0  0  0  0  0  0  0
    0.6118    3.9766    0.0000 N   0  0  0  0  0  0  0  0  0  0  0  0
   -0.0692    2.6401    0.0000 C   0  0  0  0  0  0  0  0  0  0  0  0
    0.3943    1.2135    0.0000 C   0  0  0  0  0  0  0  0  0  0  0  0
    1.2760    0.0000    0.0000 S   0  0  0  0  0  0  0  0  0  0  0  0
    0.3943   -1.2135    0.0000 C   0  0  0  0  0  0  0  0  0  0  0  0
    1.6933   -1.9635    0.0000 C   0  0  0  0  0  0  0  0  0  0  0  0
   -0.2158   -2.5838    0.0000 C   0  0  0  0  0  0  0  0  0  0  0  0
   -1.0323   -0.7500    0.0000 C   0  0  0  0  0  0  0  0  0  0  0  0
   -1.0323    0.7500    0.0000 N   0  0  0  0  0  0  0  0  0  0  0  0
   -1.4958    2.1766    0.0000 C   0  0  0  0  0  0  0  0  0  0  0  0
   -2.8323    2.8576    0.0000 O   0  0  0  0  0  0  0  0  0  0  0  0
   -2.2458   -1.6317    0.0000 C   0  0  0  0  0  0  0  0  0  0  0  0
   -2.0890   -3.1235    0.0000 O   0  0  0  0  0  0  0  0  0  0  0  0
   -3.6161   -1.0216    0.0000 O   0  0  0  0  0  1  0  0  0  0  0  0
  3  4  1  0
  4  5  1  0
  5  6  1  0
  6  7  2  0
  7  8  1  0
  8  9  2  0
  9 10  1  0
 10 11  2  0
 11 12  1  0
 12 13  2  0
 13 14  1  0
  7 15  1  0
 15 16  1  0
 16 17  2  0
 16 18  1  0
 19 18  1  1
 19 20  1  0
 20 21  1  1
 21 22  1  0
 22 23  1  0
 22 24  1  0
 22 25  1  0
 25 26  1  0
 26 27  1  0
 27 28  2  0
 25 29  1  6
 29 30  2  0
 29 31  1  0
 15  4  2  0
 13  8  1  0
 27 19  1  0
 26 20  1  0
M  CHG  2   2   1  31  -1
M  END
$$$$
1926834
     RDKit          2D

 37 38  0  0  0  0  0  0  0  0999 V2000
   10.7500    0.0000    0.0000 O   0  0  0  0  0  0  0  0  0  0  0  0
    0.0000    7.4952    0.0000 Na  0  0  0  0  0 15  0  0  0  0  0  0
   -1.5000   -5.1962    0.0000 C   0  0  0  0  0  0  0  0  0  0  0  0
   -0.7500   -3.8971    0.0000 O   0  0  0  0  0  0  0  0  0  0  0  0
    0.7500   -3.8971    0.0000 C   0  0  0  0  0  0  0  0  0  0  0  0
    1.5000   -2.5981    0.0000 C   0  0  0  0  0  0  0  0  0  0  0  0
    3.0000   -2.5981    0.0000 C   0  0  0  0  0  0  0  0  0  0  0  0
    3.7500   -3.8971    0.0000 C   0  0  0  0  0  0  0  0  0  0  0  0
    3.0000   -5.1962    0.0000 C   0  0  0  0  0  0  0  0  0  0  0  0
    1.5000   -5.1962    0.0000 C   0  0  0  0  0  0  0  0  0  0  0  0
    0.7500   -6.4952    0.0000 C   0  0  0  0  0  0  0  0  0  0  0  0
    2.0490   -7.2452    0.0000 C   0  0  0  0  0  0  0  0  0  0  0  0
   -0.5490   -5.7452    0.0000 C   0  0  0  0  0  0  0  0  0  0  0  0
   -0.0000   -7.7942    0.0000 C   0  0  0  0  0  0  0  0  0  0  0  0
    5.2500   -3.8971    0.0000 N   0  0  0  0  0  0  0  0  0  0  0  0
    6.0000   -5.1962    0.0000 C   0  0  0  0  0  0  0  0  0  0  0  0
    7.5000   -5.1962    0.0000 C   0  0  0  0  0  0  0  0  0  0  0  0
    8.2500   -3.8971    0.0000 C   0  0  0  0  0  0  0  0  0  0  0  0
    9.7500   -3.8971    0.0000 O   0  0  0  0  0  0  0  0  0  0  0  0
    7.5000   -2.5981    0.0000 N   0  0  0  0  0  2  0  0  0  0  0  0
    6.0000   -2.5981    0.0000 C   0  0  0  0  0  0  0  0  0  0  0  0
    5.2500   -1.2990    0.0000 O   0  0  0  0  0  0  0  0  0  0  0  0
    0.7500   -1.2990    0.0000 C   0  0  0  0  0  0  0  0  0  0  0  0
    1.5000    0.0000    0.0000 C   0  0  0  0  0  0  0  0  0  0  0  0
    0.7500    1.2990    0.0000 C   0  0  0  0  0  0  0  0  0  0  0  0
   -0.7500    1.2990    0.0000 C   0  0  0  0  0  0  0  0  0  0  0  0
   -1.5000    2.5981    0.0000 C   0  0  0  0  0  0  0  0  0  0  0  0
   -3.0000    2.5981    0.0000 C   0  0  0  0  0  0  0  0  0  0  0  0
   -3.7500    3.8971    0.0000 N   0  0  0  0  0  0  0  0  0  0  0  0
   -3.0000    5.1962    0.0000 S   0  0  0  0  0  0  0  0  0  0  0  0
   -1.7010    4.4462    0.0000 O   0  0  0  0  0  0  0  0  0  0  0  0
   -4.2990    5.9462    0.0000 O   0  0  0  0  0  0  0  0  0  0  0  0
   -2.2500    6.4952    0.0000 C   0  0  0  0  0  0  0  0  0  0  0  0
   -3.7500    1.2990    0.0000 C   0  0  0  0  0  0  0  0  0  0  0  0
   -3.0000    0.0000    0.0000 C   0  0  0  0  0  0  0  0  0  0  0  0
   -1.5000    0.0000    0.0000 C   0  0  0  0  0  0  0  0  0  0  0  0
   -0.7500   -1.2990    0.0000 C   0  0  0  0  0  0  0  0  0  0  0  0
  3  4  1  0
  4  5  1  0
  5  6  2  0
  6  7  1  0
  7  8  2  0
  8  9  1  0
  9 10  2  0
 10 11  1  0
 11 12  1  0
 11 13  1  0
 11 14  1  0
  8 15  1  0
 15 16  1  0
 16 17  2  0
 17 18  1  0
 18 19  2  0
 18 20  1  0
 20 21  1  0
 21 22  2  0
  6 23  1  0
 23 24  2  0
 24 25  1  0
 25 26  2  0
 26 27  1  0
 27 28  2  0
 28 29  1  0
 29 30  1  0
 30 31  2  0
 30 32  2  0
 30 33  1  0
 28 34  1  0
 34 35  2  0
 35 36  1  0
 36 37  2  0
 10  5  1  0
 21 15  1  0
 37 23  1  0
 36 26  1  0
M  CHG  2   2   1  20  -1
M  END
$$$$
1376011
     RDKit          2D

 26 25  0  0  0  0  0  0  0  0999 V2000
    0.0000    6.1962    0.0000 O   0  0  0  0  0  0  0  0  0  0  0  0
    0.0000    7.1962    0.0000 Na  0  0  0  0  0 15  0  0  0  0  0  0
    3.0000   -2.5981    0.0000 N   0  0  0  0  0  0  0  0  0  0  0  0
    3.7500   -1.2990    0.0000 C   0  0  0  0  0  0  0  0  0  0  0  0
    3.0000    0.0000    0.0000 C   0  0  0  0  0  0  0  0  0  0  0  0
    1.5000    0.0000    0.0000 C   0  0  0  0  0  0  0  0  0  0  0  0
    0.7500   -1.2990    0.0000 C   0  0  0  0  0  0  0  0  0  0  0  0
   -0.7500   -1.2990    0.0000 C   0  0  0  0  0  0  0  0  0  0  0  0
   -1.5000   -2.5981    0.0000 I   0  0  0  0  0  0  0  0  0  0  0  0
   -1.5000    0.0000    0.0000 C   0  0  0  0  0  0  0  0  0  0  0  0
   -3.0000    0.0000    0.0000 O   0  0  0  0  0  0  0  0  0  0  0  0
   -3.7500    1.2990    0.0000 C   0  0  0  0  0  0  0  0  0  0  0  0
   -3.0000    2.5981    0.0000 C   0  0  0  0  0  0  0  0  0  0  0  0
   -3.7500    3.8971    0.0000 C   0  0  0  0  0  0  0  0  0  0  0  0
   -3.0000    5.1962    0.0000 I   0  0  0  0  0  0  0  0  0  0  0  0
   -5.2500    3.8971    0.0000 C   0  0  0  0  0  0  0  0  0  0  0  0
   -6.0000    5.1962    0.0000 O   0  0  0  0  0  0  0  0  0  0  0  0
   -6.0000    2.5981    0.0000 C   0  0  0  0  0  0  0  0  0  0  0  0
   -7.5000    2.5981    0.0000 I   0  0  0  0  0  0  0  0  0  0  0  0
   -5.2500    1.2990    0.0000 C   0  0  0  0  0  0  0  0  0  0  0  0
   -0.7500    1.2990    0.0000 C   0  0  0  0  0  0  0  0  0  0  0  0
   -1.5000    2.5981    0.0000 I   0  0  0  0  0  0  0  0  0  0  0  0
    0.7500    1.2990    0.0000 C   0  0  0  0  0  0  0  0  0  0  0  0
    5.2500   -1.2990    0.0000 C   0  0  0  0  0  0  0  0  0  0  0  0
    6.0000    0.0000    0.0000 O   0  0  0  0  0  0  0  0  0  0  0  0
    6.0000   -2.5981    0.0000 O   0  0  0  0  0  1  0  0  0  0  0  0
  4  3  1  1
  4  5  1  0
  5  6  1  0
  6  7  2  0
  7  8  1  0
  8  9  1  0
  8 10  2  0
 10 11  1  0
 11 12  1  0
 12 13  2  0
 13 14  1  0
 14 15  1  0
 14 16  2  0
 16 17  1  0
 16 18  1  0
 18 19  1  0
 18 20  2  0
 10 21  1  0
 21 22  1  0
 21 23  2  0
  4 24  1  0
 24 25  2  0
 24 26  1  0
 23  6  1  0
 20 12  1  0
M  CHG  2   2   1  26  -1
M  END
$$$$
1926907
     RDKit          2D

 26 25  0  0  0  0  0  0  0  0999 V2000
    0.0000    6.1962    0.0000 O   0  0  0  0  0  0  0  0  0  0  0  0
    0.0000    7.1962    0.0000 Na  0  0  0  0  0 15  0  0  0  0  0  0
    3.0000   -2.5981    0.0000 N   0  0  0  0  0  0  0  0  0  0  0  0
    3.7500   -1.2990    0.0000 C   0  0  0  0  0  0  0  0  0  0  0  0
    3.0000    0.0000    0.0000 C   0  0  0  0  0  0  0  0  0  0  0  0
    1.5000    0.0000    0.0000 C   0  0  0  0  0  0  0  0  0  0  0  0
    0.7500   -1.2990    0.0000 C   0  0  0  0  0  0  0  0  0  0  0  0
   -0.7500   -1.2990    0.0000 C   0  0  0  0  0  0  0  0  0  0  0  0
   -1.5000   -2.5981    0.0000 I   0  0  0  0  0  0  0  0  0  0  0  0
   -1.5000    0.0000    0.0000 C   0  0  0  0  0  0  0  0  0  0  0  0
   -3.0000    0.0000    0.0000 O   0  0  0  0  0  0  0  0  0  0  0  0
   -3.7500    1.2990    0.0000 C   0  0  0  0  0  0  0  0  0  0  0  0
   -3.0000    2.5981    0.0000 C   0  0  0  0  0  0  0  0  0  0  0  0
   -3.7500    3.8971    0.0000 C   0  0  0  0  0  0  0  0  0  0  0  0
   -3.0000    5.1962    0.0000 I   0  0  0  0  0  0  0  0  0  0  0  0
   -5.2500    3.8971    0.0000 C   0  0  0  0  0  0  0  0  0  0  0  0
   -6.0000    5.1962    0.0000 O   0  0  0  0  0  0  0  0  0  0  0  0
   -6.0000    2.5981    0.0000 C   0  0  0  0  0  0  0  0  0  0  0  0
   -7.5000    2.5981    0.0000 I   0  0  0  0  0  0  0  0  0  0  0  0
   -5.2500    1.2990    0.0000 C   0  0  0  0  0  0  0  0  0  0  0  0
   -0.7500    1.2990    0.0000 C   0  0  0  0  0  0  0  0  0  0  0  0
   -1.5000    2.5981    0.0000 I   0  0  0  0  0  0  0  0  0  0  0  0
    0.7500    1.2990    0.0000 C   0  0  0  0  0  0  0  0  0  0  0  0
    5.2500   -1.2990    0.0000 C   0  0  0  0  0  0  0  0  0  0  0  0
    6.0000    0.0000    0.0000 O   0  0  0  0  0  0  0  0  0  0  0  0
    6.0000   -2.5981    0.0000 O   0  0  0  0  0  1  0  0  0  0  0  0
  4  3  1  6
  4  5  1  0
  5  6  1  0
  6  7  2  0
  7  8  1  0
  8  9  1  0
  8 10  2  0
 10 11  1  0
 11 12  1  0
 12 13  2  0
 13 14  1  0
 14 15  1  0
 14 16  2  0
 16 17  1  0
 16 18  1  0
 18 19  1  0
 18 20  2  0
 10 21  1  0
 21 22  1  0
 21 23  2  0
  4 24  1  0
 24 25  2  0
 24 26  1  0
 23  6  1  0
 20 12  1  0
M  CHG  2   2   1  26  -1
M  END
$$$$
99024
     RDKit          2D

 23 26  0  0  0  0  0  0  0  0999 V2000
   -6.0000   -5.1962    0.0000 O   0  0  0  0  0  0  0  0  0  0  0  0
   -5.2500   -3.8971    0.0000 C   0  0  0  0  0  0  0  0  0  0  0  0
   -6.0000   -2.5981    0.0000 C   0  0  0  0  0  0  0  0  0  0  0  0
   -5.2500   -1.2990    0.0000 C   0  0  0  0  0  0  0  0  0  0  0  0
   -6.0000    0.0000    0.0000 C   0  0  0  0  0  0  0  0  0  0  0  0
   -7.5000    0.0000    0.0000 C   0  0  0  0  0  0  0  0  0  0  0  0
   -8.2500   -1.2990    0.0000 C   0  0  0  0  0  0  0  0  0  0  0  0
   -7.5000   -2.5981    0.0000 C   0  0  0  0  0  0  0  0  0  0  0  0
   -3.7500   -3.8971    0.0000 N   0  0  0  0  0  0  0  0  0  0  0  0
   -3.0000   -2.5981    0.0000 C   0  0  0  0  0  0  0  0  0  0  0  0
   -1.5000   -2.5981    0.0000 C   0  0  0  0  0  0  0  0  0  0  0  0
   -0.7500   -3.8971    0.0000 N   0  0  0  0  0  0  0  0  0  0  0  0
    0.7500   -3.8971    0.0000 C   0  0  0  0  0  0  0  0  0  0  0  0
    1.5000   -2.5981    0.0000 C   0  0  0  0  0  0  0  0  0  0  0  0
    0.7500   -1.2990    0.0000 C   0  0  0  0  0  0  0  0  0  0  0  0
    1.5000    0.0000    0.0000 C   0  0  0  0  0  0  0  0  0  0  0  0
    0.7500    1.2990    0.0000 C   0  0  0  0  0  0  0  0  0  0  0  0
   -0.7500    1.2990    0.0000 C   0  0  0  0  0  0  0  0  0  0  0  0
   -1.5000    0.0000    0.0000 C   0  0  0  0  0  0  0  0  0  0  0  0
   -0.7500   -1.2990    0.0000 C   0  0  0  0  0  0  0  0  0  0  0  0
   -1.5000   -5.1962    0.0000 C   0  0  0  0  0  0  0  0  0  0  0  0
   -0.7500   -6.4952    0.0000 O   0  0  0  0  0  0  0  0  0  0  0  0
   -3.0000   -5.1962    0.0000 C   0  0  0  0  0  0  0  0  0  0  0  0
  1  2  2  0
  2  3  1  0
  3  4  1  0
  4  5  1  0
  5  6  1  0
  6  7  1  0
  7  8  1  0
  2  9  1  0
  9 10  1  0
 10 11  1  0
 11 12  1  0
 12 13  1  0
 13 14  1  0
 14 15  1  0
 15 16  2  0
 16 17  1  0
 17 18  2  0
 18 19  1  0
 19 20  2  0
 12 21  1  0
 21 22  2  0
 21 23  1  0
  8  3  1  0
 23  9  1  0
 20 11  1  0
 20 15  1  0
M  END
$$$$
1378015
     RDKit          2D

 39 41  0  0  0  0  0  0  0  0999 V2000
   -0.7500   -6.4952    0.0000 O   0  0  0  0  0  0  0  0  0  0  0  0
    0.7500   -6.4952    0.0000 C   0  0  0  0  0  0  0  0  0  0  0  0
    1.5000   -5.1962    0.0000 C   0  0  0  0  0  0  0  0  0  0  0  0
    0.7500   -3.8971    0.0000 C   0  0  0  0  0  0  0  0  0  0  0  0
    1.5000   -2.5981    0.0000 C   0  0  0  0  0  0  0  0  0  0  0  0
    0.7500   -1.2990    0.0000 C   0  0  0  0  0  0  0  0  0  0  0  0
    1.5000    0.0000    0.0000 C   0  0  0  0  0  0  0  0  0  0  0  0
    0.7500    1.2990    0.0000 C   0  0  0  0  0  0  0  0  0  0  0  0
   -0.7500    1.2990    0.0000 C   0  0  0  0  0  0  0  0  0  0  0  0
   -1.5000    0.0000    0.0000 C   0  0  0  0  0  0  0  0  0  0  0  0
   -0.7500   -1.2990    0.0000 C   0  0  0  0  0  0  0  0  0  0  0  0
    1.5000   -7.7942    0.0000 O   0  0  0  0  0  0  0  0  0  0  0  0
    0.7500   -9.0933    0.0000 C   0  0  0  0  0  0  0  0  0  0  0  0
    1.5000  -10.3923    0.0000 C   0  0  0  0  0  0  0  0  0  0  0  0
    0.7500  -11.6913    0.0000 C   0  0  0  0  0  0  0  0  0  0  0  0
    1.5000  -12.9904    0.0000 O   0  0  0  0  0  0  0  0  0  0  0  0
    0.7500  -14.2894    0.0000 C   0  0  0  0  0  0  0  0  0  0  0  0
   -0.7500  -14.2894    0.0000 O   0  0  0  0  0  0  0  0  0  0  0  0
    1.5000  -15.5885    0.0000 C   0  0  0  0  0  0  0  0  0  0  0  0
    0.7500  -16.8875    0.0000 C   0  0  0  0  0  0  0  0  0  0  0  0
    1.5000  -18.1865    0.0000 C   0  0  0  0  0  0  0  0  0  0  0  0
    0.7500  -19.4856    0.0000 C   0  0  0  0  0  0  0  0  0  0  0  0
   -0.7500  -19.4856    0.0000 C   0  0  0  0  0  0  0  0  0  0  0  0
   -1.5000  -20.7846    0.0000 C   0  0  0  0  0  0  0  0  0  0  0  0
   -0.7500  -22.0836    0.0000 C   0  0  0  0  0  0  0  0  0  0  0  0
    0.7500  -22.0836    0.0000 C   0  0  0  0  0  0  0  0  0  0  0  0
    1.5000  -20.7846    0.0000 C   0  0  0  0  0  0  0  0  0  0  0  0
    3.0000  -10.3923    0.0000 O   0  0  0  0  0  0  0  0  0  0  0  0
    3.7500  -11.6913    0.0000 C   0  0  0  0  0  0  0  0  0  0  0  0
    3.0000  -12.9904    0.0000 O   0  0  0  0  0  0  0  0  0  0  0  0
    5.2500  -11.6913    0.0000 C   0  0  0  0  0  0  0  0  0  0  0  0
    6.0000  -12.9904    0.0000 C   0  0  0  0  0  0  0  0  0  0  0  0
    7.5000  -12.9904    0.0000 C   0  0  0  0  0  0  0  0  0  0  0  0
    8.2500  -14.2894    0.0000 C   0  0  0  0  0  0  0  0  0  0  0  0
    7.5000  -15.5885    0.0000 C   0  0  0  0  0  0  0  0  0  0  0  0
    8.2500  -16.8875    0.0000 C   0  0  0  0  0  0  0  0  0  0  0  0
    9.7500  -16.8875    0.0000 C   0  0  0  0  0  0  0  0  0  0  0  0
   10.5000  -15.5885    0.0000 C   0  0  0  0  0  0  0  0  0  0  0  0
    9.7500  -14.2894    0.0000 C   0  0  0  0  0  0  0  0  0  0  0  0
  1  2  2  0
  2  3  1  0
  3  4  1  0
  4  5  1  0
  5  6  1  0
  6  7  2  0
  7  8  1  0
  8  9  2  0
  9 10  1  0
 10 11  2  0
  2 12  1  0
 12 13  1  0
 13 14  1  0
 14 15  1  0
 15 16  1  0
 16 17  1  0
 17 18  2  0
 17 19  1  0
 19 20  1  0
 20 21  1  0
 21 22  1  0
 22 23  2  0
 23 24  1  0
 24 25  2  0
 25 26  1  0
 26 27  2  0
 14 28  1  0
 28 29  1  0
 29 30  2  0
 29 31  1  0
 31 32  1  0
 32 33  1  0
 33 34  1  0
 34 35  2  0
 35 36  1  0
 36 37  2  0
 37 38  1  0
 38 39  2  0
 11  6  1  0
 27 22  1  0
 39 34  1  0
M  END
$$$$
1543376
     RDKit          2D

 24 28  0  0  0  0  0  0  0  0999 V2000
   -0.7500   -3.8971    0.0000 O   0  0  0  0  0  0  0  0  0  0  0  0
    0.7500   -3.8971    0.0000 C   0  0  0  0  0  0  0  0  0  0  0  0
    1.5000   -2.5981    0.0000 O   0  0  0  0  0  0  0  0  0  0  0  0
    0.7500   -1.2990    0.0000 C   0  0  0  0  0  0  0  0  0  0  0  0
    1.5000    0.0000    0.0000 C   0  0  0  0  0  0  0  0  0  0  0  0
    0.7500    1.2990    0.0000 C   0  0  0  0  0  0  0  0  0  0  0  0
    1.5000    2.5981    0.0000 C   0  0  0  0  0  0  0  0  0  0  0  0
    0.7500    3.8971    0.0000 C   0  0  0  0  0  0  0  0  0  0  0  0
   -0.1996    2.0185    0.0000 C   0  0  0  0  0  0  0  0  0  0  0  0
   -1.5000    0.0000    0.0000 C   0  0  0  0  0  0  0  0  0  0  0  0
   -0.7500   -1.2990    0.0000 C   0  0  0  0  0  0  0  0  0  0  0  0
   -0.7500    1.2990    0.0000 N   0  0  0  0  0  0  0  0  0  0  0  0
   -1.5000    2.5981    0.0000 C   0  0  0  0  0  0  0  0  0  0  0  0
   -0.7500    3.8971    0.0000 C   0  0  0  0  0  0  0  0  0  0  0  0
   -1.5000    5.1962    0.0000 O   0  0  0  0  0  0  0  0  0  0  0  0
    1.5000   -5.1962    0.0000 C   0  0  0  0  0  0  0  0  0  0  0  0
    2.9918   -5.3529    0.0000 C   0  0  0  0  0  0  0  0  0  0  0  0
    3.3037   -6.8202    0.0000 N   0  0  0  0  0  0  0  0  0  0  0  0
    2.0046   -7.5702    0.0000 C   0  0  0  0  0  0  0  0  0  0  0  0
    1.6927   -9.0374    0.0000 C   0  0  0  0  0  0  0  0  0  0  0  0
    0.2662   -9.5009    0.0000 C   0  0  0  0  0  0  0  0  0  0  0  0
   -0.8486   -8.4972    0.0000 C   0  0  0  0  0  0  0  0  0  0  0  0
   -0.5367   -7.0300    0.0000 C   0  0  0  0  0  0  0  0  0  0  0  0
    0.8899   -6.5665    0.0000 C   0  0  0  0  0  0  0  0  0  0  0  0
  1  2  2  0
  2  3  1  0
  4  3  1  1
  4  5  1  0
  6  5  1  1
  6  7  1  0
  8  7  1  1
  8  9  1  0
  9 10  1  0
 10 11  1  6
 10 12  1  0
 12 13  1  0
 13 14  1  0
 14 15  2  0
  2 16  1  0
 16 17  2  0
 17 18  1  0
 18 19  1  0
 19 20  2  0
 20 21  1  0
 21 22  2  0
 22 23  1  0
 23 24  2  0
 11  4  1  0
 12  6  1  0
 14  8  1  0
 24 16  1  0
 24 19  1  0
M  END
$$$$
561914
     RDKit          2D

 27 31  0  0  0  0  0  0  0  0999 V2000
   -3.0000   -5.1962    0.0000 O   0  0  0  0  0  0  0  0  0  0  0  0
   -1.5000   -5.1962    0.0000 C   0  0  0  0  0  0  0  0  0  0  0  0
   -0.7500   -6.4952    0.0000 O   0  0  0  0  0  0  0  0  0  0  0  0
   -2.5454   -8.4807    0.0000 C   0  0  0  0  0  0  0  0  0  0  0  0
   -1.8672   -9.6553    0.0000 C   0  0  0  0  0  0  0  0  0  0  0  0
   -1.5000  -10.3923    0.0000 N   0  0  0  0  0  0  0  0  0  0  0  0
   -3.0000  -10.3923    0.0000 C   0  0  0  0  0  0  0  0  0  0  0  0
   -3.7500   -9.0933    0.0000 C   0  0  0  0  0  0  0  0  0  0  0  0
   -3.0000   -7.7942    0.0000 C   0  0  0  0  0  0  0  0  0  0  0  0
   -1.5000   -7.7942    0.0000 C   0  0  0  0  0  0  0  0  0  0  0  0
   -0.7500   -9.0933    0.0000 C   0  0  0  0  0  0  0  0  0  0  0  0
   -0.7500   -3.8971    0.0000 N   0  0  0  0  0  0  0  0  0  0  0  0
    0.7500   -3.8971    0.0000 C   0  0  0  0  0  0  0  0  0  0  0  0
    1.5000   -2.5981    0.0000 C   0  0  0  0  0  0  0  0  0  0  0  0
    0.7500   -1.2990    0.0000 C   0  0  0  0  0  0  0  0  0  0  0  0
    1.5000    0.0000    0.0000 C   0  0  0  0  0  0  0  0  0  0  0  0
    0.7500    1.2990    0.0000 C   0  0  0  0  0  0  0  0  0  0  0  0
   -0.7500    1.2990    0.0000 C   0  0  0  0  0  0  0  0  0  0  0  0
   -1.5000    0.0000    0.0000 C   0  0  0  0  0  0  0  0  0  0  0  0
   -0.7500   -1.2990    0.0000 C   0  0  0  0  0  0  0  0  0  0  0  0
   -1.5000   -2.5981    0.0000 C   0  0  0  0  0  0  0  0  0  0  0  0
   -3.0000   -2.5981    0.0000 C   0  0  0  0  0  0  0  0  0  0  0  0
   -3.7500   -1.2990    0.0000 C   0  0  0  0  0  0  0  0  0  0  0  0
   -5.2500   -1.2990    0.0000 C   0  0  0  0  0  0  0  0  0  0  0  0
   -6.0000   -2.5981    0.0000 C   0  0  0  0  0  0  0  0  0  0  0  0
   -5.2500   -3.8971    0.0000 C   0  0  0  0  0  0  0  0  0  0  0  0
   -3.7500   -3.8971    0.0000 C   0  0  0  0  0  0  0  0  0  0  0  0
  1  2  2  0
  2  3  1  0
  4  3  1  1
  4  5  1  0
  5  6  1  0
  6  7  1  0
  7  8  1  0
  8  9  1  0
  9 10  1  0
 10 11  1  0
  2 12  1  0
 12 13  1  0
 13 14  1  0
 14 15  1  0
 15 16  2  0
 16 17  1  0
 17 18  2  0
 18 19  1  0
 19 20  2  0
 20 21  1  0
 21 22  1  1
 22 23  2  0
 23 24  1  0
 24 25  2  0
 25 26  1  0
 26 27  2  0
  9  4  1  0
 11  6  1  0
 21 12  1  0
 20 15  1  0
 27 22  1  0
M  END
$$$$
33727
     RDKit          2D

 17 19  0  0  0  0  0  0  0  0999 V2000
   -2.6401   -3.1891    0.0000 O   0  0  0  0  0  0  0  0  0  0  0  0
   -1.2135   -2.7256    0.0000 C   0  0  0  0  0  0  0  0  0  0  0  0
   -0.0000   -3.6073    0.0000 C   0  0  0  0  0  0  0  0  0  0  0  0
    1.2135   -2.7256    0.0000 C   0  0  0  0  0  0  0  0  0  0  0  0
    2.6401   -3.1891    0.0000 O   0  0  0  0  0  0  0  0  0  0  0  0
    0.7500   -1.2990    0.0000 C   0  0  0  0  0  0  0  0  0  0  0  0
    1.5000    0.0000    0.0000 C   0  0  0  0  0  0  0  0  0  0  0  0
    0.7500    1.2990    0.0000 C   0  0  0  0  0  0  0  0  0  0  0  0
   -0.7500    1.2990    0.0000 C   0  0  0  0  0  0  0  0  0  0  0  0
   -1.5000    0.0000    0.0000 C   0  0  0  0  0  0  0  0  0  0  0  0
   -0.7500   -1.2990    0.0000 C   0  0  0  0  0  0  0  0  0  0  0  0
   -0.0000   -5.1073    0.0000 C   0  0  0  0  0  0  0  0  0  0  0  0
   -1.2990   -5.8573    0.0000 C   0  0  0  0  0  0  0  0  0  0  0  0
   -1.2990   -7.3573    0.0000 C   0  0  0  0  0  0  0  0  0  0  0  0
   -0.0000   -8.1073    0.0000 C   0  0  0  0  0  0  0  0  0  0  0  0
    1.2990   -7.3573    0.0000 C   0  0  0  0  0  0  0  0  0  0  0  0
    1.2990   -5.8573    0.0000 C   0  0  0  0  0  0  0  0  0  0  0  0
  1  2  2  0
  2  3  1  0
  3  4  1  0
  4  5  2  0
  4  6  1  0
  6  7  2  0
  7  8  1  0
  8  9  2  0
  9 10  1  0
 10 11  2  0
  3 12  1  0
 12 13  2  0
 13 14  1  0
 14 15  2  0
 15 16  1  0
 16 17  2  0
 11  2  1  0
 11  6  1  0
 17 12  1  0
M  END
$$$$
3599
     RDKit          2D

 28 31  0  0  0  0  0  0  0  0999 V2000
    3.7923    3.2638    0.0000 O   0  0  0  0  0  0  0  0  0  0  0  0
    2.3250    2.9520    0.0000 C   0  0  0  0  0  0  0  0  0  0  0  0
    1.8615    1.5254    0.0000 C   0  0  0  0  0  0  0  0  0  0  0  0
    0.3943    1.2135    0.0000 C   0  0  0  0  0  0  0  0  0  0  0  0
    1.2760    0.0000    0.0000 C   0  0  0  0  0  0  0  0  0  0  0  0
    0.3943   -1.2135    0.0000 C   0  0  0  0  0  0  0  0  0  0  0  0
   -1.0323   -0.7500    0.0000 C   0  0  0  0  0  0  0  0  0  0  0  0
   -1.0323    0.7500    0.0000 C   0  0  0  0  0  0  0  0  0  0  0  0
   -0.6094    2.3282    0.0000 C   0  0  0  0  0  0  0  0  0  0  0  0
   -0.1459    3.7548    0.0000 C   0  0  0  0  0  0  0  0  0  0  0  0
   -1.1496    4.8695    0.0000 O   0  0  0  0  0  0  0  0  0  0  0  0
    1.3213    4.0667    0.0000 N   0  0  0  0  0  0  0  0  0  0  0  0
    1.7849    5.4933    0.0000 C   0  0  0  0  0  0  0  0  0  0  0  0
    3.2521    5.8051    0.0000 C   0  0  0  0  0  0  0  0  0  0  0  0
    3.7156    7.2317    0.0000 C   0  0  0  0  0  0  0  0  0  0  0  0
    5.1828    7.5436    0.0000 C   0  0  0  0  0  0  0  0  0  0  0  0
    5.6464    8.9702    0.0000 N   0  0  0  0  0  0  0  0  0  0  0  0
    7.1136    9.2821    0.0000 C   0  0  0  0  0  0  0  0  0  0  0  0
    7.5771   10.7086    0.0000 C   0  0  0  0  0  0  0  0  0  0  0  0
    6.5734   11.8234    0.0000 N   0  0  0  0  0  0  0  0  0  0  0  0
    5.1062   11.5115    0.0000 C   0  0  0  0  0  0  0  0  0  0  0  0
    4.6427   10.0849    0.0000 C   0  0  0  0  0  0  0  0  0  0  0  0
    7.0369   13.2499    0.0000 C   0  0  0  0  0  0  0  0  0  0  0  0
    8.5042   13.5618    0.0000 N   0  0  0  0  0  0  0  0  0  0  0  0
    8.9677   14.9884    0.0000 C   0  0  0  0  0  0  0  0  0  0  0  0
    7.9640   16.1031    0.0000 C   0  0  0  0  0  0  0  0  0  0  0  0
    6.4968   15.7912    0.0000 C   0  0  0  0  0  0  0  0  0  0  0  0
    6.0332   14.3647    0.0000 N   0  0  0  0  0  0  0  0  0  0  0  0
  1  2  2  0
  2  3  1  0
  3  4  1  0
  4  5  1  0
  5  6  1  0
  6  7  1  0
  7  8  1  0
  4  9  1  0
  9 10  1  0
 10 11  2  0
 10 12  1  0
 12 13  1  0
 13 14  1  0
 14 15  1  0
 15 16  1  0
 16 17  1  0
 17 18  1  0
 18 19  1  0
 19 20  1  0
 20 21  1  0
 21 22  1  0
 20 23  1  0
 23 24  2  0
 24 25  1  0
 25 26  2  0
 26 27  1  0
 27 28  2  0
 12  2  1  0
  8  4  1  0
 22 17  1  0
 28 23  1  0
M  END
$$$$
5028
     RDKit          2D

 19 21  0  0  0  0  0  0  0  0999 V2000
    0.0000   -9.6073    0.0000 O   0  0  0  0  0  0  0  0  0  0  0  0
    0.0000   -8.1073    0.0000 C   0  0  0  0  0  0  0  0  0  0  0  0
   -1.2990   -7.3573    0.0000 C   0  0  0  0  0  0  0  0  0  0  0  0
   -1.2990   -5.8573    0.0000 C   0  0  0  0  0  0  0  0  0  0  0  0
   -0.0000   -5.1073    0.0000 C   0  0  0  0  0  0  0  0  0  0  0  0
   -0.0000   -3.6073    0.0000 N   0  0  0  0  0  0  0  0  0  0  0  0
    1.2135   -2.7256    0.0000 C   0  0  0  0  0  0  0  0  0  0  0  0
    2.6401   -3.1891    0.0000 O   0  0  0  0  0  0  0  0  0  0  0  0
    0.7500   -1.2990    0.0000 C   0  0  0  0  0  0  0  0  0  0  0  0
    1.5000    0.0000    0.0000 C   0  0  0  0  0  0  0  0  0  0  0  0
    0.7500    1.2990    0.0000 C   0  0  0  0  0  0  0  0  0  0  0  0
   -0.7500    1.2990    0.0000 C   0  0  0  0  0  0  0  0  0  0  0  0
   -1.5000    0.0000    0.0000 C   0  0  0  0  0  0  0  0  0  0  0  0
   -0.7500   -1.2990    0.0000 C   0  0  0  0  0  0  0  0  0  0  0  0
   -1.2135   -2.7256    0.0000 C   0  0  0  0  0  0  0  0  0  0  0  0
   -2.6401   -3.1891    0.0000 O   0  0  0  0  0  0  0  0  0  0  0  0
    1.2990   -5.8573    0.0000 C   0  0  0  0  0  0  0  0  0  0  0  0
    2.5981   -5.1073    0.0000 O   0  0  0  0  0  0  0  0  0  0  0  0
    1.2990   -7.3573    0.0000 N   0  0  0  0  0  0  0  0  0  0  0  0
  1  2  2  0
  2  3  1  0
  3  4  1  0
  4  5  1  0
  5  6  1  0
  6  7  1  0
  7  8  2  0
  7  9  1  0
  9 10  2  0
 10 11  1  0
 11 12  2  0
 12 13  1  0
 13 14  2  0
 14 15  1  0
 15 16  2  0
  5 17  1  0
 17 18  2  0
 17 19  1  0
 19  2  1  0
 15  6  1  0
 14  9  1  0
M  END
$$$$
50440
     RDKit          2D

 27 30  0  0  0  0  0  0  0  0999 V2000
    3.0000    0.0000    0.0000 O   0  0  0  0  0  0  0  0  0  0  0  0
    1.5000    0.0000    0.0000 C   0  0  0  0  0  0  0  0  0  0  0  0
    0.7500   -1.2990    0.0000 C   0  0  0  0  0  0  0  0  0  0  0  0
   -0.7500   -1.2990    0.0000 C   0  0  0  0  0  0  0  0  0  0  0  0
   -1.5000    0.0000    0.0000 C   0  0  0  0  0  0  0  0  0  0  0  0
   -3.0000    0.0000    0.0000 C   0  0  0  0  0  0  0  0  0  0  0  0
   -3.7500    1.2990    0.0000 C   0  0  0  0  0  0  0  0  0  0  0  0
   -5.2500    1.2990    0.0000 O   0  0  0  0  0  0  0  0  0  0  0  0
   -6.0000    2.5981    0.0000 C   0  0  0  0  0  0  0  0  0  0  0  0
   -7.5000    2.5981    0.0000 C   0  0  0  0  0  0  0  0  0  0  0  0
   -8.2500    3.8971    0.0000 C   0  0  0  0  0  0  0  0  0  0  0  0
   -9.7500    3.8971    0.0000 C   0  0  0  0  0  0  0  0  0  0  0  0
  -10.5000    5.1962    0.0000 C   0  0  0  0  0  0  0  0  0  0  0  0
  -11.9918    5.3529    0.0000 N   0  0  0  0  0  0  0  0  0  0  0  0
  -12.3037    6.8202    0.0000 N   0  0  0  0  0  0  0  0  0  0  0  0
  -11.0046    7.5702    0.0000 N   0  0  0  0  0  0  0  0  0  0  0  0
   -9.8899    6.5665    0.0000 N   0  0  0  0  0  0  0  0  0  0  0  0
   -8.4227    6.8783    0.0000 C   0  0  0  0  0  0  0  0  0  0  0  0
   -7.4190    5.7636    0.0000 C   0  0  0  0  0  0  0  0  0  0  0  0
   -5.9518    6.0755    0.0000 C   0  0  0  0  0  0  0  0  0  0  0  0
   -5.4882    7.5021    0.0000 C   0  0  0  0  0  0  0  0  0  0  0  0
   -6.4919    8.6168    0.0000 C   0  0  0  0  0  0  0  0  0  0  0  0
   -7.9591    8.3049    0.0000 C   0  0  0  0  0  0  0  0  0  0  0  0
   -3.0000    2.5981    0.0000 C   0  0  0  0  0  0  0  0  0  0  0  0
   -1.5000    2.5981    0.0000 C   0  0  0  0  0  0  0  0  0  0  0  0
   -0.7500    1.2990    0.0000 C   0  0  0  0  0  0  0  0  0  0  0  0
    0.7500    1.2990    0.0000 N   0  0  0  0  0  0  0  0  0  0  0  0
  1  2  2  0
  2  3  1  0
  3  4  1  0
  4  5  1  0
  5  6  2  0
  6  7  1  0
  7  8  1  0
  8  9  1  0
  9 10  1  0
 10 11  1  0
 11 12  1  0
 12 13  1  0
 13 14  2  0
 14 15  1  0
 15 16  2  0
 16 17  1  0
 17 18  1  0
 18 19  1  0
 19 20  1  0
 20 21  1  0
 21 22  1  0
 22 23  1  0
  7 24  2  0
 24 25  1  0
 25 26  2  0
 26 27  1  0
 27  2  1  0
 26  5  1  0
 17 13  1  0
 23 18  1  0
M  END
$$$$
685974
     RDKit          2D

 27 30  0  0  0  0  0  0  0  0999 V2000
    3.0000    0.0000    0.0000 O   0  0  0  0  0  0  0  0  0  0  0  0
    1.5000    0.0000    0.0000 C   0  0  0  0  0  0  0  0  0  0  0  0
    0.7500   -1.2990    0.0000 N   0  0  0  0  0  0  0  0  0  0  0  0
   -0.7500   -1.2990    0.0000 C   0  0  0  0  0  0  0  0  0  0  0  0
   -1.5000    0.0000    0.0000 C   0  0  0  0  0  0  0  0  0  0  0  0
   -0.7500    1.2990    0.0000 C   0  0  0  0  0  0  0  0  0  0  0  0
    0.7500    1.2990    0.0000 C   0  0  0  0  0  0  0  0  0  0  0  0
    1.5000    2.5981    0.0000 C   0  0  0  0  0  0  0  0  0  0  0  0
    3.0000    2.5981    0.0000 C   0  0  0  0  0  0  0  0  0  0  0  0
    3.7500    3.8971    0.0000 C   0  0  0  0  0  0  0  0  0  0  0  0
    3.0000    5.1962    0.0000 C   0  0  0  0  0  0  0  0  0  0  0  0
    1.5000    5.1962    0.0000 C   0  0  0  0  0  0  0  0  0  0  0  0
    0.7500    3.8971    0.0000 C   0  0  0  0  0  0  0  0  0  0  0  0
   -0.7500    3.8971    0.0000 C   0  0  0  0  0  0  0  0  0  0  0  0
   -2.2500    3.8971    0.0000 N   0  0  0  0  0  0  0  0  0  0  0  0
   -3.0000    0.0000    0.0000 C   0  0  0  0  0  0  0  0  0  0  0  0
   -3.7500    1.2990    0.0000 C   0  0  0  0  0  0  0  0  0  0  0  0
   -5.2500    1.2990    0.0000 C   0  0  0  0  0  0  0  0  0  0  0  0
   -6.0000    0.0000    0.0000 C   0  0  0  0  0  0  0  0  0  0  0  0
   -5.2500   -1.2990    0.0000 C   0  0  0  0  0  0  0  0  0  0  0  0
   -3.7500   -1.2990    0.0000 N   0  0  0  0  0  0  0  0  0  0  0  0
    1.5000   -2.5981    0.0000 C   0  0  0  0  0  0  0  0  0  0  0  0
    0.7500   -3.8971    0.0000 C   0  0  0  0  0  0  0  0  0  0  0  0
    1.5000   -5.1962    0.0000 C   0  0  0  0  0  0  0  0  0  0  0  0
    3.0000   -5.1962    0.0000 C   0  0  0  0  0  0  0  0  0  0  0  0
    3.7500   -3.8971    0.0000 C   0  0  0  0  0  0  0  0  0  0  0  0
    3.0000   -2.5981    0.0000 C   0  0  0  0  0  0  0  0  0  0  0  0
  1  2  2  0
  2  3  1  0
  3  4  1  0
  4  5  2  0
  5  6  1  0
  6  7  2  0
  7  8  1  0
  8  9  2  0
  9 10  1  0
 10 11  2  0
 11 12  1  0
 12 13  2  0
 13 14  1  0
 14 15  3  0
  5 16  1  0
 16 17  2  0
 17 18  1  0
 18 19  2  0
 19 20  1  0
 20 21  2  0
  3 22  1  0
 22 23  2  0
 23 24  1  0
 24 25  2  0
 25 26  1  0
 26 27  2  0
  7  2  1  0
 13  8  1  0
 21 16  1  0
 27 22  1  0
M  END
$$$$
663629
     RDKit          2D

 22 26  0  0  0  0  0  0  0  0999 V2000
   -1.5000   -5.1962    0.0000 O   0  0  0  0  0  0  0  0  0  0  0  0
   -0.7500   -3.8971    0.0000 C   0  0  0  0  0  0  0  0  0  0  0  0
    0.7500   -3.8971    0.0000 N   0  0  0  0  0  0  0  0  0  0  0  0
    1.5000   -2.5981    0.0000 C   0  0  0  0  0  0  0  0  0  0  0  0
    0.7500   -1.2990    0.0000 C   0  0  0  0  0  0  0  0  0  0  0  0
    1.5000    0.0000    0.0000 C   0  0  0  0  0  0  0  0  0  0  0  0
    0.7500    1.2990    0.0000 C   0  0  0  0  0  0  0  0  0  0  0  0
   -0.7500    1.2990    0.0000 C   0  0  0  0  0  0  0  0  0  0  0  0
   -1.5000    0.0000    0.0000 C   0  0  0  0  0  0  0  0  0  0  0  0
   -3.0000   -0.0000    0.0000 C   0  0  0  0  0  0  0  0  0  0  0  0
   -3.7500   -1.2990    0.0000 C   0  0  0  0  0  0  0  0  0  0  0  0
   -3.0000   -2.5981    0.0000 C   0  0  0  0  0  0  0  0  0  0  0  0
   -1.5000   -2.5981    0.0000 C   0  0  0  0  0  0  0  0  0  0  0  0
   -0.7500   -1.2990    0.0000 C   0  0  0  0  0  0  0  0  0  0  0  0
    1.5718   -6.4447    0.0000 C   0  0  0  0  0  0  0  0  0  0  0  0
    2.9282   -6.4447    0.0000 C   0  0  0  0  0  0  0  0  0  0  0  0
    3.7500   -6.4952    0.0000 N   0  0  0  0  0  0  0  0  0  0  0  0
    3.0000   -7.7942    0.0000 C   0  0  0  0  0  0  0  0  0  0  0  0
    1.5000   -7.7942    0.0000 C   0  0  0  0  0  0  0  0  0  0  0  0
    0.7500   -6.4952    0.0000 C   0  0  0  0  0  0  0  0  0  0  0  0
    1.5000   -5.1962    0.0000 C   0  0  0  0  0  0  0  0  0  0  0  0
    3.0000   -5.1962    0.0000 C   0  0  0  0  0  0  0  0  0  0  0  0
  1  2  2  0
  2  3  1  0
  3  4  1  0
  5  4  1  6
  5  6  1  0
  6  7  1  0
  7  8  1  0
  8  9  1  0
  9 10  1  0
 10 11  2  0
 11 12  1  0
 12 13  2  0
 13 14  1  0
 15  3  1  6
 15 16  1  0
 16 17  1  0
 17 18  1  0
 18 19  1  0
 19 20  1  0
 20 21  1  0
 21 22  1  0
 13  2  1  0
 14  5  1  0
 14  9  2  0
 20 15  1  0
 22 17  1  0
M  END
$$$$
1378030
     RDKit          2D

 31 35  0  0  0  0  0  0  0  0999 V2000
    3.0000    0.0000    0.0000 O   0  0  0  0  0  0  0  0  0  0  0  0
    1.5000    0.0000    0.0000 C   0  0  0  0  0  0  0  0  0  0  0  0
    0.7500   -1.2990    0.0000 N   0  0  0  0  0  0  0  0  0  0  0  0
   -0.7500   -1.2990    0.0000 C   0  0  0  0  0  0  0  0  0  0  0  0
   -1.5000   -2.5981    0.0000 C   0  0  0  0  0  0  0  0  0  0  0  0
   -3.0000   -2.5981    0.0000 C   0  0  0  0  0  0  0  0  0  0  0  0
   -3.7500   -3.8971    0.0000 O   0  0  0  0  0  0  0  0  0  0  0  0
   -5.2500   -3.8971    0.0000 C   0  0  0  0  0  0  0  0  0  0  0  0
   -6.0000   -5.1962    0.0000 C   0  0  0  0  0  0  0  0  0  0  0  0
   -7.5000   -5.1962    0.0000 C   0  0  0  0  0  0  0  0  0  0  0  0
   -8.2500   -6.4952    0.0000 C   0  0  0  0  0  0  0  0  0  0  0  0
   -9.7500   -6.4952    0.0000 N   0  0  0  0  0  0  0  0  0  0  0  0
  -10.5000   -5.1962    0.0000 C   0  0  0  0  0  0  0  0  0  0  0  0
  -12.0000   -5.1962    0.0000 C   0  0  0  0  0  0  0  0  0  0  0  0
  -12.7500   -6.4952    0.0000 N   0  0  0  0  0  0  0  0  0  0  0  0
  -12.0000   -7.7942    0.0000 C   0  0  0  0  0  0  0  0  0  0  0  0
  -10.5000   -7.7942    0.0000 C   0  0  0  0  0  0  0  0  0  0  0  0
  -14.2500   -6.4952    0.0000 C   0  0  0  0  0  0  0  0  0  0  0  0
  -15.0000   -5.1962    0.0000 C   0  0  0  0  0  0  0  0  0  0  0  0
  -16.5000   -5.1962    0.0000 C   0  0  0  0  0  0  0  0  0  0  0  0
  -17.2500   -6.4952    0.0000 C   0  0  0  0  0  0  0  0  0  0  0  0
  -16.5000   -7.7942    0.0000 C   0  0  0  0  0  0  0  0  0  0  0  0
  -16.9635   -9.2208    0.0000 S   0  0  0  0  0  0  0  0  0  0  0  0
  -15.7500  -10.1025    0.0000 C   0  0  0  0  0  0  0  0  0  0  0  0
  -14.5365   -9.2208    0.0000 C   0  0  0  0  0  0  0  0  0  0  0  0
  -15.0000   -7.7942    0.0000 C   0  0  0  0  0  0  0  0  0  0  0  0
   -3.7500   -1.2990    0.0000 C   0  0  0  0  0  0  0  0  0  0  0  0
   -3.0000    0.0000    0.0000 C   0  0  0  0  0  0  0  0  0  0  0  0
   -1.5000    0.0000    0.0000 C   0  0  0  0  0  0  0  0  0  0  0  0
   -0.7500    1.2990    0.0000 C   0  0  0  0  0  0  0  0  0  0  0  0
    0.7500    1.2990    0.0000 C   0  0  0  0  0  0  0  0  0  0  0  0
  1  2  2  0
  2  3  1  0
  3  4  1  0
  4  5  2  0
  5  6  1  0
  6  7  1  0
  7  8  1  0
  8  9  1  0
  9 10  1  0
 10 11  1  0
 11 12  1  0
 12 13  1  0
 13 14  1  0
 14 15  1  0
 15 16  1  0
 16 17  1  0
 15 18  1  0
 18 19  2  0
 19 20  1  0
 20 21  2  0
 21 22  1  0
 22 23  1  0
 23 24  1  0
 24 25  2  0
 25 26  1  0
  6 27  2  0
 27 28  1  0
 28 29  2  0
 29 30  1  0
 30 31  2  0
 31  2  1  0
 29  4  1  0
 17 12  1  0
 26 18  1  0
 26 22  2  0
M  END
$$$$
395607
     RDKit          2D

 10 11  0  0  0  0  0  0  0  0999 V2000
   -3.5736    1.2902    0.0000 O   0  0  0  0  0  0  0  0  0  0  0  0
   -2.1470    1.7537    0.0000 C   0  0  0  0  0  0  0  0  0  0  0  0
   -1.8351    3.2209    0.0000 N   0  0  0  0  0  0  0  0  0  0  0  0
   -0.4086    3.6844    0.0000 C   0  0  0  0  0  0  0  0  0  0  0  0
    0.7062    2.6807    0.0000 N   0  0  0  0  0  0  0  0  0  0  0  0
    0.3943    1.2135    0.0000 C   0  0  0  0  0  0  0  0  0  0  0  0
    1.2760    0.0000    0.0000 N   0  0  0  0  0  0  0  0  0  0  0  0
    0.3943   -1.2135    0.0000 N   0  0  0  0  0  0  0  0  0  0  0  0
   -1.0323   -0.7500    0.0000 C   0  0  0  0  0  0  0  0  0  0  0  0
   -1.0323    0.7500    0.0000 C   0  0  0  0  0  0  0  0  0  0  0  0
  1  2  2  0
  2  3  1  0
  3  4  1  0
  4  5  2  0
  5  6  1  0
  6  7  1  0
  7  8  1  0
  8  9  2  0
  9 10  1  0
 10  2  1  0
 10  6  2  0
M  END
$$$$
699372
     RDKit          2D

 35 41  0  0  0  0  0  0  0  0999 V2000
   -1.4504    4.3172    0.0000 O   0  0  0  0  0  0  0  0  0  0  0  0
   -1.9140    2.8906    0.0000 C   0  0  0  0  0  0  0  0  0  0  0  0
   -1.0323    1.6771    0.0000 C   0  0  0  0  0  0  0  0  0  0  0  0
    0.3943    1.2135    0.0000 C   0  0  0  0  0  0  0  0  0  0  0  0
    1.2760    0.0000    0.0000 C   0  0  0  0  0  0  0  0  0  0  0  0
    0.3943   -1.2135    0.0000 C   0  0  0  0  0  0  0  0  0  0  0  0
   -1.0323   -0.7500    0.0000 C   0  0  0  0  0  0  0  0  0  0  0  0
   -1.0323    0.7500    0.0000 C   0  0  0  0  0  0  0  0  0  0  0  0
   -1.9140    0.4635    0.0000 C   0  0  0  0  0  0  0  0  0  0  0  0
   -3.3405    0.9271    0.0000 C   0  0  0  0  0  0  0  0  0  0  0  0
   -4.5541    0.0454    0.0000 O   0  0  0  0  0  0  0  0  0  0  0  0
   -3.3405    2.4271    0.0000 N   0  0  0  0  0  0  0  0  0  0  0  0
   -4.5541    3.3087    0.0000 C   0  0  0  0  0  0  0  0  0  0  0  0
   -4.3973    4.8005    0.0000 C   0  0  0  0  0  0  0  0  0  0  0  0
   -3.0270    5.4106    0.0000 C   0  0  0  0  0  0  0  0  0  0  0  0
   -2.8702    6.9024    0.0000 C   0  0  0  0  0  0  0  0  0  0  0  0
   -4.0837    7.7841    0.0000 C   0  0  0  0  0  0  0  0  0  0  0  0
   -5.4540    7.1740    0.0000 C   0  0  0  0  0  0  0  0  0  0  0  0
   -5.6108    5.6822    0.0000 C   0  0  0  0  0  0  0  0  0  0  0  0
   -6.9811    5.0721    0.0000 C   0  0  0  0  0  0  0  0  0  0  0  0
   -8.1947    5.9538    0.0000 N   0  0  0  0  0  0  0  0  0  0  0  0
   -8.0379    7.4455    0.0000 C   0  0  0  0  0  0  0  0  0  0  0  0
   -9.2514    8.3272    0.0000 C   0  0  0  0  0  0  0  0  0  0  0  0
  -10.6217    7.7171    0.0000 N   0  0  0  0  0  0  0  0  0  0  0  0
  -10.7785    6.2253    0.0000 C   0  0  0  0  0  0  0  0  0  0  0  0
   -9.5650    5.3437    0.0000 C   0  0  0  0  0  0  0  0  0  0  0  0
  -11.8352    8.5988    0.0000 C   0  0  0  0  0  0  0  0  0  0  0  0
  -11.8352   10.0988    0.0000 N   0  0  0  0  0  0  0  0  0  0  0  0
  -13.2618   10.5623    0.0000 S   0  0  0  0  0  0  0  0  0  0  0  0
  -14.1435    9.3488    0.0000 C   0  0  0  0  0  0  0  0  0  0  0  0
  -15.6353    9.1920    0.0000 C   0  0  0  0  0  0  0  0  0  0  0  0
  -16.2454    7.8217    0.0000 C   0  0  0  0  0  0  0  0  0  0  0  0
  -15.3637    6.6082    0.0000 C   0  0  0  0  0  0  0  0  0  0  0  0
  -13.8719    6.7650    0.0000 C   0  0  0  0  0  0  0  0  0  0  0  0
  -13.2618    8.1353    0.0000 C   0  0  0  0  0  0  0  0  0  0  0  0
  1  2  2  0
  3  2  1  6
  3  4  1  0
  4  5  1  1
  5  6  1  0
  7  6  1  1
  7  8  1  0
  7  9  1  0
  9 10  1  6
 10 11  2  0
 10 12  1  0
 12 13  1  0
 14 13  1  1
 14 15  1  0
 15 16  1  0
 16 17  1  0
 17 18  1  0
 18 19  1  0
 19 20  1  6
 20 21  1  0
 21 22  1  0
 22 23  1  0
 23 24  1  0
 24 25  1  0
 25 26  1  0
 24 27  1  0
 27 28  2  0
 28 29  1  0
 29 30  1  0
 30 31  2  0
 31 32  1  0
 32 33  2  0
 33 34  1  0
 34 35  2  0
 12  2  1  0
  9  3  1  0
  8  4  1  0
 19 14  1  0
 26 21  1  0
 35 27  1  0
 35 30  1  0
M  END
$$$$
674523
     RDKit          2D

  2  1  0  0  0  0  0  0  0  0999 V2000
    0.0000    0.0000    0.0000 O   0  0  0  0  0  0  0  0  0  0  0  0
    1.2990    0.7500    0.0000 Mg  0  0  0  0  0  2  0  0  0  0  0  0
  1  2  2  0
M  END
$$$$
675272
     RDKit          2D

 32 35  0  0  0  0  0  0  0  0999 V2000
   -0.9200   -3.2893    0.0000 O   0  0  0  0  0  0  0  0  0  0  0  0
    0.4895   -2.7762    0.0000 C   0  0  0  0  0  0  0  0  0  0  0  0
    1.6386   -3.7404    0.0000 O   0  0  0  0  0  0  0  0  0  0  0  0
    0.7500   -1.2990    0.0000 C   0  0  0  0  0  0  0  0  0  0  0  0
    1.5000    0.0000    0.0000 C   0  0  0  0  0  0  0  0  0  0  0  0
    0.7500    1.2990    0.0000 C   0  0  0  0  0  0  0  0  0  0  0  0
   -0.7500    1.2990    0.0000 N   0  0  0  0  0  0  0  0  0  0  0  0
   -1.5000    2.5981    0.0000 C   0  0  0  0  0  0  0  0  0  0  0  0
   -0.7500    3.8971    0.0000 C   0  0  0  0  0  0  0  0  0  0  0  0
   -1.5000    5.1962    0.0000 C   0  0  0  0  0  0  0  0  0  0  0  0
   -2.7990    4.4462    0.0000 C   0  0  0  0  0  0  0  0  0  0  0  0
   -4.0981    3.6962    0.0000 N   0  0  0  0  0  0  0  0  0  0  0  0
   -2.2500    6.4952    0.0000 C   0  0  0  0  0  0  0  0  0  0  0  0
   -1.5000    7.7942    0.0000 C   0  0  0  0  0  0  0  0  0  0  0  0
   -2.2500    9.0933    0.0000 C   0  0  0  0  0  0  0  0  0  0  0  0
   -3.7500    9.0933    0.0000 C   0  0  0  0  0  0  0  0  0  0  0  0
   -4.5000    7.7942    0.0000 C   0  0  0  0  0  0  0  0  0  0  0  0
   -3.7500    6.4952    0.0000 C   0  0  0  0  0  0  0  0  0  0  0  0
   -0.2010    5.9462    0.0000 C   0  0  0  0  0  0  0  0  0  0  0  0
    1.0981    5.1962    0.0000 C   0  0  0  0  0  0  0  0  0  0  0  0
    2.3971    5.9462    0.0000 C   0  0  0  0  0  0  0  0  0  0  0  0
    2.3971    7.4462    0.0000 C   0  0  0  0  0  0  0  0  0  0  0  0
    1.0981    8.1962    0.0000 C   0  0  0  0  0  0  0  0  0  0  0  0
   -0.2010    7.4462    0.0000 C   0  0  0  0  0  0  0  0  0  0  0  0
   -1.5000    0.0000    0.0000 C   0  0  0  0  0  0  0  0  0  0  0  0
   -0.7500   -1.2990    0.0000 C   0  0  0  0  0  0  0  0  0  0  0  0
    2.1595   -1.8121    0.0000 C   0  0  0  0  0  0  0  0  0  0  0  0
    2.4200   -3.2893    0.0000 C   0  0  0  0  0  0  0  0  0  0  0  0
    3.8296   -3.8023    0.0000 C   0  0  0  0  0  0  0  0  0  0  0  0
    4.9786   -2.8381    0.0000 C   0  0  0  0  0  0  0  0  0  0  0  0
    4.7181   -1.3609    0.0000 C   0  0  0  0  0  0  0  0  0  0  0  0
    3.3086   -0.8479    0.0000 C   0  0  0  0  0  0  0  0  0  0  0  0
  1  2  1  0
  2  3  2  0
  2  4  1  0
  4  5  1  0
  5  6  1  0
  6  7  1  0
  7  8  1  0
  8  9  1  0
  9 10  1  0
 10 11  1  0
 11 12  3  0
 10 13  1  0
 13 14  2  0
 14 15  1  0
 15 16  2  0
 16 17  1  0
 17 18  2  0
 10 19  1  0
 19 20  2  0
 20 21  1  0
 21 22  2  0
 22 23  1  0
 23 24  2  0
  7 25  1  0
 25 26  1  0
  4 27  1  0
 27 28  2  0
 28 29  1  0
 29 30  2  0
 30 31  1  0
 31 32  2  0
 26  4  1  0
 18 13  1  0
 24 19  1  0
 32 27  1  0
M  END
$$$$
241
     RDKit          2D

 24 27  0  0  0  0  0  0  0  0999 V2000
   -3.0000   -5.1962    0.0000 O   0  0  0  0  0  0  0  0  0  0  0  0
   -1.5000   -5.1962    0.0000 C   0  0  0  0  0  0  0  0  0  0  0  0
   -0.7500   -6.4952    0.0000 O   0  0  0  0  0  0  0  0  0  0  0  0
   -0.7500   -3.8971    0.0000 C   0  0  0  0  0  0  0  0  0  0  0  0
    0.7500   -3.8971    0.0000 C   0  0  0  0  0  0  0  0  0  0  0  0
    1.5000   -2.5981    0.0000 N   0  0  0  0  0  0  0  0  0  0  0  0
    3.0000   -2.5981    0.0000 C   0  0  0  0  0  0  0  0  0  0  0  0
    4.2990   -1.8481    0.0000 C   0  0  0  0  0  0  0  0  0  0  0  0
    4.2990   -3.3481    0.0000 C   0  0  0  0  0  0  0  0  0  0  0  0
    0.7500   -1.2990    0.0000 C   0  0  0  0  0  0  0  0  0  0  0  0
    1.5000    0.0000    0.0000 C   0  0  0  0  0  0  0  0  0  0  0  0
    0.7500    1.2990    0.0000 C   0  0  0  0  0  0  0  0  0  0  0  0
    1.5000    2.5981    0.0000 N   0  0  0  0  0  0  0  0  0  0  0  0
    3.0000    2.5981    0.0000 C   0  0  0  0  0  0  0  0  0  0  0  0
    3.7500    3.8971    0.0000 C   0  0  0  0  0  0  0  0  0  0  0  0
    3.0000    5.1962    0.0000 N   0  0  0  0  0  0  0  0  0  0  0  0
    1.5000    5.1962    0.0000 C   0  0  0  0  0  0  0  0  0  0  0  0
    0.7500    3.8971    0.0000 C   0  0  0  0  0  0  0  0  0  0  0  0
   -0.7500    1.2990    0.0000 C   0  0  0  0  0  0  0  0  0  0  0  0
   -1.5000    2.5981    0.0000 F   0  0  0  0  0  0  0  0  0  0  0  0
   -1.5000    0.0000    0.0000 C   0  0  0  0  0  0  0  0  0  0  0  0
   -0.7500   -1.2990    0.0000 C   0  0  0  0  0  0  0  0  0  0  0  0
   -1.5000   -2.5981    0.0000 C   0  0  0  0  0  0  0  0  0  0  0  0
   -3.0000   -2.5981    0.0000 O   0  0  0  0  0  0  0  0  0  0  0  0
  1  2  1  0
  2  3  2  0
  2  4  1  0
  4  5  2  0
  5  6  1  0
  6  7  1  0
  7  8  1  0
  8  9  1  0
  6 10  1  0
 10 11  2  0
 11 12  1  0
 12 13  1  0
 13 14  1  0
 14 15  1  0
 15 16  1  0
 16 17  1  0
 17 18  1  0
 12 19  2  0
 19 20  1  0
 19 21  1  0
 21 22  2  0
 22 23  1  0
 23 24  2  0
 23  4  1  0
  9  7  1  0
 22 10  1  0
 18 13  1  0
M  END
$$$$
77652
     RDKit          2D

 18 19  0  0  0  0  0  0  0  0999 V2000
    3.7500   -1.2990    0.0000 O   0  0  0  0  0  0  0  0  0  0  0  0
    3.0000    0.0000    0.0000 C   0  0  0  0  0  0  0  0  0  0  0  0
    3.7500    1.2990    0.0000 O   0  0  0  0  0  0  0  0  0  0  0  0
    1.5000    0.0000    0.0000 C   0  0  0  0  0  0  0  0  0  0  0  0
    0.7500   -1.2990    0.0000 C   0  0  0  0  0  0  0  0  0  0  0  0
   -0.7500   -1.2990    0.0000 C   0  0  0  0  0  0  0  0  0  0  0  0
   -1.5000    0.0000    0.0000 C   0  0  0  0  0  0  0  0  0  0  0  0
   -0.7500    1.2990    0.0000 C   0  0  0  0  0  0  0  0  0  0  0  0
    0.7500    1.2990    0.0000 C   0  0  0  0  0  0  0  0  0  0  0  0
    1.5000    2.5981    0.0000 O   0  0  0  0  0  0  0  0  0  0  0  0
   -1.5000   -2.5981    0.0000 C   0  0  0  0  0  0  0  0  0  0  0  0
   -3.0000   -2.5981    0.0000 C   0  0  0  0  0  0  0  0  0  0  0  0
   -3.7500   -3.8971    0.0000 C   0  0  0  0  0  0  0  0  0  0  0  0
   -3.0000   -5.1962    0.0000 C   0  0  0  0  0  0  0  0  0  0  0  0
   -3.7500   -6.4952    0.0000 F   0  0  0  0  0  0  0  0  0  0  0  0
   -1.5000   -5.1962    0.0000 C   0  0  0  0  0  0  0  0  0  0  0  0
   -0.7500   -3.8971    0.0000 C   0  0  0  0  0  0  0  0  0  0  0  0
    0.7500   -3.8971    0.0000 F   0  0  0  0  0  0  0  0  0  0  0  0
  1  2  1  0
  2  3  2  0
  2  4  1  0
  4  5  2  0
  5  6  1  0
  6  7  2  0
  7  8  1  0
  8  9  2  0
  9 10  1  0
  6 11  1  0
 11 12  2  0
 12 13  1  0
 13 14  2  0
 14 15  1  0
 14 16  1  0
 16 17  2  0
 17 18  1  0
  9  4  1  0
 17 11  1  0
M  END
$$$$
1223
     RDKit          2D

 28 30  0  0  0  0  0  0  0  0999 V2000
    3.7500   -1.2990    0.0000 O   0  0  0  0  0  0  0  0  0  0  0  0
    3.0000    0.0000    0.0000 C   0  0  0  0  0  0  0  0  0  0  0  0
    3.7500    1.2990    0.0000 O   0  0  0  0  0  0  0  0  0  0  0  0
    1.5000    0.0000    0.0000 C   0  0  0  0  0  0  0  0  0  0  0  0
    0.7500   -1.2990    0.0000 C   0  0  0  0  0  0  0  0  0  0  0  0
   -0.7500   -1.2990    0.0000 C   0  0  0  0  0  0  0  0  0  0  0  0
   -1.5000    0.0000    0.0000 C   0  0  0  0  0  0  0  0  0  0  0  0
   -0.7500    1.2990    0.0000 C   0  0  0  0  0  0  0  0  0  0  0  0
    0.7500    1.2990    0.0000 C   0  0  0  0  0  0  0  0  0  0  0  0
    1.5000    2.5981    0.0000 O   0  0  0  0  0  0  0  0  0  0  0  0
   -1.5000   -2.5981    0.0000 N   0  0  0  0  0  0  0  0  0  0  0  0
   -3.0000   -2.5981    0.0000 N   0  0  0  0  0  0  0  0  0  0  0  0
   -3.7500   -3.8971    0.0000 C   0  0  0  0  0  0  0  0  0  0  0  0
   -5.2500   -3.8971    0.0000 C   0  0  0  0  0  0  0  0  0  0  0  0
   -6.0000   -5.1962    0.0000 C   0  0  0  0  0  0  0  0  0  0  0  0
   -5.2500   -6.4952    0.0000 C   0  0  0  0  0  0  0  0  0  0  0  0
   -3.7500   -6.4952    0.0000 C   0  0  0  0  0  0  0  0  0  0  0  0
   -3.0000   -5.1962    0.0000 C   0  0  0  0  0  0  0  0  0  0  0  0
   -6.0000   -7.7942    0.0000 S   0  0  0  0  0  0  0  0  0  0  0  0
   -7.2990   -7.0442    0.0000 O   0  0  0  0  0  0  0  0  0  0  0  0
   -4.7010   -8.5442    0.0000 O   0  0  0  0  0  0  0  0  0  0  0  0
   -6.7500   -9.0933    0.0000 N   0  0  0  0  0  0  0  0  0  0  0  0
   -6.0000  -10.3923    0.0000 C   0  0  0  0  0  0  0  0  0  0  0  0
   -6.7500  -11.6913    0.0000 C   0  0  0  0  0  0  0  0  0  0  0  0
   -6.0000  -12.9904    0.0000 C   0  0  0  0  0  0  0  0  0  0  0  0
   -4.5000  -12.9904    0.0000 C   0  0  0  0  0  0  0  0  0  0  0  0
   -3.7500  -11.6913    0.0000 C   0  0  0  0  0  0  0  0  0  0  0  0
   -4.5000  -10.3923    0.0000 N   0  0  0  0  0  0  0  0  0  0  0  0
  1  2  1  0
  2  3  2  0
  2  4  1  0
  4  5  2  0
  5  6  1  0
  6  7  2  0
  7  8  1  0
  8  9  2  0
  9 10  1  0
  6 11  1  0
 11 12  2  3
 12 13  1  0
 13 14  2  0
 14 15  1  0
 15 16  2  0
 16 17  1  0
 17 18  2  0
 16 19  1  0
 19 20  2  0
 19 21  2  0
 19 22  1  0
 22 23  1  0
 23 24  2  0
 24 25  1  0
 25 26  2  0
 26 27  1  0
 27 28  2  0
  9  4  1  0
 18 13  1  0
 28 23  1  0
M  END
$$$$
1369
     RDKit          2D

 22 23  0  0  0  0  0  0  0  0999 V2000
    3.7500   -1.2990    0.0000 O   0  0  0  0  0  0  0  0  0  0  0  0
    3.0000    0.0000    0.0000 C   0  0  0  0  0  0  0  0  0  0  0  0
    3.7500    1.2990    0.0000 O   0  0  0  0  0  0  0  0  0  0  0  0
    1.5000    0.0000    0.0000 C   0  0  0  0  0  0  0  0  0  0  0  0
    0.7500   -1.2990    0.0000 C   0  0  0  0  0  0  0  0  0  0  0  0
   -0.7500   -1.2990    0.0000 C   0  0  0  0  0  0  0  0  0  0  0  0
   -1.5000    0.0000    0.0000 C   0  0  0  0  0  0  0  0  0  0  0  0
   -0.7500    1.2990    0.0000 C   0  0  0  0  0  0  0  0  0  0  0  0
    0.7500    1.2990    0.0000 C   0  0  0  0  0  0  0  0  0  0  0  0
    1.5000    2.5981    0.0000 O   0  0  0  0  0  0  0  0  0  0  0  0
   -1.5000   -2.5981    0.0000 N   0  0  0  0  0  0  0  0  0  0  0  0
   -3.0000   -2.5981    0.0000 N   0  0  0  0  0  0  0  0  0  0  0  0
   -3.7500   -3.8971    0.0000 C   0  0  0  0  0  0  0  0  0  0  0  0
   -5.2500   -3.8971    0.0000 C   0  0  0  0  0  0  0  0  0  0  0  0
   -6.0000   -5.1962    0.0000 C   0  0  0  0  0  0  0  0  0  0  0  0
   -5.2500   -6.4952    0.0000 C   0  0  0  0  0  0  0  0  0  0  0  0
   -6.0000   -7.7942    0.0000 O   0  0  0  0  0  0  0  0  0  0  0  0
   -3.7500   -6.4952    0.0000 C   0  0  0  0  0  0  0  0  0  0  0  0
   -3.0000   -5.1962    0.0000 C   0  0  0  0  0  0  0  0  0  0  0  0
   -3.0000   -7.7942    0.0000 C   0  0  0  0  0  0  0  0  0  0  0  0
   -3.7500   -9.0933    0.0000 O   0  0  0  0  0  0  0  0  0  0  0  0
   -1.5000   -7.7942    0.0000 O   0  0  0  0  0  0  0  0  0  0  0  0
  1  2  1  0
  2  3  2  0
  2  4  1  0
  4  5  2  0
  5  6  1  0
  6  7  2  0
  7  8  1  0
  8  9  2  0
  9 10  1  0
  6 11  1  0
 11 12  2  3
 12 13  1  0
 13 14  2  0
 14 15  1  0
 15 16  2  0
 16 17  1  0
 16 18  1  0
 18 19  2  0
 18 20  1  0
 20 21  2  0
 20 22  1  0
  9  4  1  0
 19 13  1  0
M  END
$$$$
564990
     RDKit          2D

 28 31  0  0  0  0  0  0  0  0999 V2000
    3.7500   -1.2990    0.0000 O   0  0  0  0  0  0  0  0  0  0  0  0
    3.0000    0.0000    0.0000 C   0  0  0  0  0  0  0  0  0  0  0  0
    3.7500    1.2990    0.0000 O   0  0  0  0  0  0  0  0  0  0  0  0
    1.5000    0.0000    0.0000 C   0  0  0  0  0  0  0  0  0  0  0  0
    0.7500   -1.2990    0.0000 C   0  0  0  0  0  0  0  0  0  0  0  0
   -0.7500   -1.2990    0.0000 C   0  0  0  0  0  0  0  0  0  0  0  0
   -1.5000    0.0000    0.0000 C   0  0  0  0  0  0  0  0  0  0  0  0
   -0.7500    1.2990    0.0000 C   0  0  0  0  0  0  0  0  0  0  0  0
    0.7500    1.2990    0.0000 C   0  0  0  0  0  0  0  0  0  0  0  0
   -3.0000    0.0000    0.0000 N   0  0  0  0  0  0  0  0  0  0  0  0
   -3.8817   -1.2135    0.0000 N   0  0  0  0  0  0  0  0  0  0  0  0
   -5.3083   -0.7500    0.0000 C   0  0  0  0  0  0  0  0  0  0  0  0
   -5.3083    0.7500    0.0000 N   0  0  0  0  0  0  0  0  0  0  0  0
   -3.8817    1.2135    0.0000 C   0  0  0  0  0  0  0  0  0  0  0  0
   -3.4182    2.6401    0.0000 C   0  0  0  0  0  0  0  0  0  0  0  0
   -1.9509    2.9520    0.0000 C   0  0  0  0  0  0  0  0  0  0  0  0
   -1.4874    4.3786    0.0000 C   0  0  0  0  0  0  0  0  0  0  0  0
   -2.4911    5.4933    0.0000 C   0  0  0  0  0  0  0  0  0  0  0  0
   -3.9583    5.1814    0.0000 C   0  0  0  0  0  0  0  0  0  0  0  0
   -4.4218    3.7548    0.0000 C   0  0  0  0  0  0  0  0  0  0  0  0
   -5.8891    3.4430    0.0000 O   0  0  0  0  0  0  0  0  0  0  0  0
   -6.5218   -1.6317    0.0000 C   0  0  0  0  0  0  0  0  0  0  0  0
   -7.8921   -1.0216    0.0000 C   0  0  0  0  0  0  0  0  0  0  0  0
   -9.1056   -1.9033    0.0000 C   0  0  0  0  0  0  0  0  0  0  0  0
   -8.9488   -3.3950    0.0000 C   0  0  0  0  0  0  0  0  0  0  0  0
   -7.5785   -4.0051    0.0000 C   0  0  0  0  0  0  0  0  0  0  0  0
   -6.3650   -3.1235    0.0000 C   0  0  0  0  0  0  0  0  0  0  0  0
   -4.9947   -3.7336    0.0000 O   0  0  0  0  0  0  0  0  0  0  0  0
  1  2  1  0
  2  3  2  0
  2  4  1  0
  4  5  2  0
  5  6  1  0
  6  7  2  0
  7  8  1  0
  8  9  2  0
  7 10  1  0
 10 11  1  0
 11 12  2  0
 12 13  1  0
 13 14  2  0
 14 15  1  0
 15 16  2  0
 16 17  1  0
 17 18  2  0
 18 19  1  0
 19 20  2  0
 20 21  1  0
 12 22  1  0
 22 23  2  0
 23 24  1  0
 24 25  2  0
 25 26  1  0
 26 27  2  0
 27 28  1  0
  9  4  1  0
 14 10  1  0
 20 15  1  0
 27 22  1  0
M  END
$$$$
674319
     RDKit          2D

 30 32  0  0  0  0  0  0  0  0999 V2000
    3.7500   -1.2990    0.0000 O   0  0  0  0  0  0  0  0  0  0  0  0
    3.0000    0.0000    0.0000 C   0  0  0  0  0  0  0  0  0  0  0  0
    3.7500    1.2990    0.0000 O   0  0  0  0  0  0  0  0  0  0  0  0
    1.5000    0.0000    0.0000 C   0  0  0  0  0  0  0  0  0  0  0  0
    0.7500   -1.2990    0.0000 C   0  0  0  0  0  0  0  0  0  0  0  0
   -0.7500   -1.2990    0.0000 C   0  0  0  0  0  0  0  0  0  0  0  0
   -1.5000    0.0000    0.0000 C   0  0  0  0  0  0  0  0  0  0  0  0
   -3.0000    0.0000    0.0000 N   0  0  0  0  0  0  0  0  0  0  0  0
   -3.7500    1.2990    0.0000 C   0  0  0  0  0  0  0  0  0  0  0  0
   -3.0000    2.5981    0.0000 O   0  0  0  0  0  0  0  0  0  0  0  0
   -5.2500    1.2990    0.0000 C   0  0  0  0  0  0  0  0  0  0  0  0
   -6.0000    2.5981    0.0000 C   0  0  0  0  0  0  0  0  0  0  0  0
   -7.5000    2.5981    0.0000 C   0  0  0  0  0  0  0  0  0  0  0  0
   -8.2500    3.8971    0.0000 C   0  0  0  0  0  0  0  0  0  0  0  0
   -9.7500    3.8971    0.0000 C   0  0  0  0  0  0  0  0  0  0  0  0
  -10.5000    2.5981    0.0000 C   0  0  0  0  0  0  0  0  0  0  0  0
  -12.0000    2.5981    0.0000 O   0  0  0  0  0  0  0  0  0  0  0  0
   -9.7500    1.2990    0.0000 C   0  0  0  0  0  0  0  0  0  0  0  0
   -8.2500    1.2990    0.0000 C   0  0  0  0  0  0  0  0  0  0  0  0
   -6.0000    0.0000    0.0000 N   0  0  0  0  0  0  0  0  0  0  0  0
   -5.2500   -1.2990    0.0000 C   0  0  0  0  0  0  0  0  0  0  0  0
   -3.7500   -1.2990    0.0000 O   0  0  0  0  0  0  0  0  0  0  0  0
   -6.0000   -2.5981    0.0000 C   0  0  0  0  0  0  0  0  0  0  0  0
   -5.2500   -3.8971    0.0000 C   0  0  0  0  0  0  0  0  0  0  0  0
   -6.0000   -5.1962    0.0000 C   0  0  0  0  0  0  0  0  0  0  0  0
   -7.5000   -5.1962    0.0000 C   0  0  0  0  0  0  0  0  0  0  0  0
   -8.2500   -3.8971    0.0000 C   0  0  0  0  0  0  0  0  0  0  0  0
   -7.5000   -2.5981    0.0000 C   0  0  0  0  0  0  0  0  0  0  0  0
   -0.7500    1.2990    0.0000 C   0  0  0  0  0  0  0  0  0  0  0  0
    0.7500    1.2990    0.0000 C   0  0  0  0  0  0  0  0  0  0  0  0
  1  2  1  0
  2  3  2  0
  2  4  1  0
  4  5  2  0
  5  6  1  0
  6  7  2  0
  7  8  1  0
  8  9  1  0
  9 10  2  0
  9 11  1  0
 11 12  1  1
 12 13  1  0
 13 14  2  0
 14 15  1  0
 15 16  2  0
 16 17  1  0
 16 18  1  0
 18 19  2  0
 11 20  1  0
 20 21  1  0
 21 22  2  0
 21 23  1  0
 23 24  2  0
 24 25  1  0
 25 26  2  0
 26 27  1  0
 27 28  2  0
  7 29  1  0
 29 30  2  0
 30  4  1  0
 19 13  1  0
 28 23  1  0
M  END
$$$$
5080
     RDKit          2D

 19 21  0  0  0  0  0  0  0  0999 V2000
    3.5260   -1.2990    0.0000 O   0  0  0  0  0  0  0  0  0  0  0  0
    2.7760    0.0000    0.0000 C   0  0  0  0  0  0  0  0  0  0  0  0
    3.5260    1.2990    0.0000 O   0  0  0  0  0  0  0  0  0  0  0  0
    1.2760    0.0000    0.0000 C   0  0  0  0  0  0  0  0  0  0  0  0
    0.3943    1.2135    0.0000 C   0  0  0  0  0  0  0  0  0  0  0  0
   -1.0323    0.7500    0.0000 C   0  0  0  0  0  0  0  0  0  0  0  0
   -1.0323   -0.7500    0.0000 N   0  0  0  0  0  0  0  0  0  0  0  0
    0.3943   -1.2135    0.0000 C   0  0  0  0  0  0  0  0  0  0  0  0
    0.3943   -2.7135    0.0000 C   0  0  0  0  0  0  0  0  0  0  0  0
   -1.0323   -3.1771    0.0000 C   0  0  0  0  0  0  0  0  0  0  0  0
   -1.9140   -1.9635    0.0000 C   0  0  0  0  0  0  0  0  0  0  0  0
   -3.4140   -1.9635    0.0000 C   0  0  0  0  0  0  0  0  0  0  0  0
   -4.1640   -3.2626    0.0000 O   0  0  0  0  0  0  0  0  0  0  0  0
   -4.1640   -0.6645    0.0000 C   0  0  0  0  0  0  0  0  0  0  0  0
   -3.4140    0.6346    0.0000 C   0  0  0  0  0  0  0  0  0  0  0  0
   -4.1640    1.9336    0.0000 C   0  0  0  0  0  0  0  0  0  0  0  0
   -5.6640    1.9336    0.0000 C   0  0  0  0  0  0  0  0  0  0  0  0
   -6.4140    0.6346    0.0000 C   0  0  0  0  0  0  0  0  0  0  0  0
   -5.6640   -0.6645    0.0000 C   0  0  0  0  0  0  0  0  0  0  0  0
  1  2  1  0
  2  3  2  0
  2  4  1  0
  4  5  1  0
  5  6  1  0
  6  7  1  0
  7  8  1  0
  8  9  2  0
  9 10  1  0
 10 11  2  0
 11 12  1  0
 12 13  2  0
 12 14  1  0
 14 15  2  0
 15 16  1  0
 16 17  2  0
 17 18  1  0
 18 19  2  0
  8  4  1  0
 11  7  1  0
 19 14  1  0
M  END
$$$$
685093
     RDKit          2D

 22 24  0  0  0  0  0  0  0  0999 V2000
   -1.2990   -6.8350    0.0000 O   0  0  0  0  0  0  0  0  0  0  0  0
   -0.0000   -6.0850    0.0000 C   0  0  0  0  0  0  0  0  0  0  0  0
    1.2990   -6.8350    0.0000 O   0  0  0  0  0  0  0  0  0  0  0  0
   -0.0000   -4.5850    0.0000 C   0  0  0  0  0  0  0  0  0  0  0  0
    1.3515   -3.9342    0.0000 N   0  0  0  0  0  0  0  0  0  0  0  0
    1.6852   -2.4718    0.0000 C   0  0  0  0  0  0  0  0  0  0  0  0
    3.1476   -2.1380    0.0000 C   0  0  0  0  0  0  0  0  0  0  0  0
    4.1679   -3.2376    0.0000 C   0  0  0  0  0  0  0  0  0  0  0  0
    5.6303   -2.9038    0.0000 C   0  0  0  0  0  0  0  0  0  0  0  0
    6.0724   -1.4704    0.0000 C   0  0  0  0  0  0  0  0  0  0  0  0
    5.0522   -0.3709    0.0000 C   0  0  0  0  0  0  0  0  0  0  0  0
    3.5898   -0.7046    0.0000 C   0  0  0  0  0  0  0  0  0  0  0  0
    0.7500   -1.2990    0.0000 C   0  0  0  0  0  0  0  0  0  0  0  0
    1.5000    0.0000    0.0000 C   0  0  0  0  0  0  0  0  0  0  0  0
    0.7500    1.2990    0.0000 C   0  0  0  0  0  0  0  0  0  0  0  0
    1.5000    2.5981    0.0000 Cl  0  0  0  0  0  0  0  0  0  0  0  0
   -0.7500    1.2990    0.0000 C   0  0  0  0  0  0  0  0  0  0  0  0
   -1.5000    0.0000    0.0000 C   0  0  0  0  0  0  0  0  0  0  0  0
   -0.7500   -1.2990    0.0000 C   0  0  0  0  0  0  0  0  0  0  0  0
   -1.6852   -2.4718    0.0000 N   0  0  0  0  0  0  0  0  0  0  0  0
   -1.3515   -3.9342    0.0000 C   0  0  0  0  0  0  0  0  0  0  0  0
   -2.5242   -4.8694    0.0000 O   0  0  0  0  0  0  0  0  0  0  0  0
  1  2  1  0
  2  3  2  0
  2  4  1  0
  4  5  1  0
  5  6  2  0
  6  7  1  0
  7  8  2  0
  8  9  1  0
  9 10  2  0
 10 11  1  0
 11 12  2  0
  6 13  1  0
 13 14  2  0
 14 15  1  0
 15 16  1  0
 15 17  2  0
 17 18  1  0
 18 19  2  0
 19 20  1  0
 20 21  1  0
 21 22  2  0
 21  4  1  0
 12  7  1  0
 19 13  1  0
M  END
$$$$
240769
     RDKit          2D

 13 12  0  0  0  0  0  0  0  0999 V2000
   -2.5981    0.0000    0.0000 O   0  0  0  0  0  0  0  0  0  0  0  0
   -1.2990    0.7500    0.0000 C   0  0  0  0  0  0  0  0  0  0  0  0
   -1.2990    2.2500    0.0000 O   0  0  0  0  0  0  0  0  0  0  0  0
    0.0000    0.0000    0.0000 C   0  0  0  0  0  0  0  0  0  0  0  0
    1.2990    0.7500    0.0000 C   0  0  0  0  0  0  0  0  0  0  0  0
    0.5490    2.0490    0.0000 O   0  0  0  0  0  0  0  0  0  0  0  0
    2.5981    1.5000    0.0000 C   0  0  0  0  0  0  0  0  0  0  0  0
    2.5981    3.0000    0.0000 C   0  0  0  0  0  0  0  0  0  0  0  0
    1.2990    3.7500    0.0000 O   0  0  0  0  0  0  0  0  0  0  0  0
    3.8971    3.7500    0.0000 O   0  0  0  0  0  0  0  0  0  0  0  0
    2.0490   -0.5490    0.0000 C   0  0  0  0  0  0  0  0  0  0  0  0
    1.2990   -1.8481    0.0000 O   0  0  0  0  0  0  0  0  0  0  0  0
    3.5490   -0.5490    0.0000 O   0  0  0  0  0  0  0  0  0  0  0  0
  1  2  1  0
  2  3  2  0
  2  4  1  0
  4  5  1  0
  5  6  1  0
  5  7  1  0
  7  8  1  0
  8  9  2  0
  8 10  1  0
  5 11  1  0
 11 12  2  0
 11 13  1  0
M  END
$$$$
674793
     RDKit          2D

 19 18  0  0  0  0  0  0  0  0999 V2000
   -2.5981    4.1471    0.0000 O   0  0  0  0  0  0  0  0  0  0  0  0
   -1.2990    4.8971    0.0000 C   0  0  0  0  0  0  0  0  0  0  0  0
   -1.2990    6.3971    0.0000 O   0  0  0  0  0  0  0  0  0  0  0  0
    0.0000    4.1471    0.0000 C   0  0  0  0  0  0  0  0  0  0  0  0
    1.2990    4.8971    0.0000 C   0  0  0  0  0  0  0  0  0  0  0  0
    0.5490    6.1962    0.0000 O   0  0  0  0  0  0  0  0  0  0  0  0
    2.5981    5.6471    0.0000 C   0  0  0  0  0  0  0  0  0  0  0  0
    2.5981    7.1471    0.0000 C   0  0  0  0  0  0  0  0  0  0  0  0
    1.2990    7.8971    0.0000 O   0  0  0  0  0  0  0  0  0  0  0  0
    3.8971    7.8971    0.0000 O   0  0  0  0  0  0  0  0  0  0  0  0
    2.0490    3.5981    0.0000 C   0  0  0  0  0  0  0  0  0  0  0  0
    1.2990    2.2990    0.0000 O   0  0  0  0  0  0  0  0  0  0  0  0
    3.5490    3.5981    0.0000 O   0  0  0  0  0  0  0  0  0  0  0  0
    1.5000    0.0000    0.0000 C   0  0  0  0  0  0  0  0  0  0  0  0
    0.7500   -1.2990    0.0000 C   0  0  0  0  0  0  0  0  0  0  0  0
   -0.7500   -1.2990    0.0000 N   0  0  0  0  0  0  0  0  0  0  0  0
   -1.5000    0.0000    0.0000 C   0  0  0  0  0  0  0  0  0  0  0  0
   -0.7500    1.2990    0.0000 C   0  0  0  0  0  0  0  0  0  0  0  0
    0.7500    1.2990    0.0000 N   0  0  0  0  0  0  0  0  0  0  0  0
  1  2  1  0
  2  3  2  0
  2  4  1  0
  4  5  1  0
  5  6  1  0
  5  7  1  0
  7  8  1  0
  8  9  2  0
  8 10  1  0
  5 11  1  0
 11 12  2  0
 11 13  1  0
 14 15  1  0
 15 16  1  0
 16 17  1  0
 17 18  1  0
 18 19  1  0
 19 14  1  0
M  END
$$$$
29890
     RDKit          2D

 19 20  0  0  0  0  0  0  0  0999 V2000
    5.2500   -1.2990    0.0000 O   0  0  0  0  0  0  0  0  0  0  0  0
    3.7500   -1.2990    0.0000 C   0  0  0  0  0  0  0  0  0  0  0  0
    3.0000   -2.5981    0.0000 O   0  0  0  0  0  0  0  0  0  0  0  0
    3.0000    0.0000    0.0000 C   0  0  0  0  0  0  0  0  0  0  0  0
    1.5000    0.0000    0.0000 C   0  0  0  0  0  0  0  0  0  0  0  0
    0.7500   -1.2990    0.0000 C   0  0  0  0  0  0  0  0  0  0  0  0
   -0.7500   -1.2990    0.0000 C   0  0  0  0  0  0  0  0  0  0  0  0
   -1.5000    0.0000    0.0000 C   0  0  0  0  0  0  0  0  0  0  0  0
   -0.7500    1.2990    0.0000 C   0  0  0  0  0  0  0  0  0  0  0  0
    0.7500    1.2990    0.0000 C   0  0  0  0  0  0  0  0  0  0  0  0
    1.5000    2.5981    0.0000 N   0  0  0  0  0  0  0  0  0  0  0  0
    0.7500    3.8971    0.0000 C   0  0  0  0  0  0  0  0  0  0  0  0
    1.5000    5.1962    0.0000 C   0  0  0  0  0  0  0  0  0  0  0  0
    3.0000    5.1962    0.0000 Cl  0  0  0  0  0  0  0  0  0  0  0  0
    0.7500    6.4952    0.0000 C   0  0  0  0  0  0  0  0  0  0  0  0
   -0.7500    6.4952    0.0000 C   0  0  0  0  0  0  0  0  0  0  0  0
   -1.5000    5.1962    0.0000 C   0  0  0  0  0  0  0  0  0  0  0  0
   -0.7500    3.8971    0.0000 C   0  0  0  0  0  0  0  0  0  0  0  0
   -1.5000    2.5981    0.0000 Cl  0  0  0  0  0  0  0  0  0  0  0  0
  1  2  1  0
  2  3  2  0
  2  4  1  0
  4  5  1  0
  5  6  2  0
  6  7  1  0
  7  8  2  0
  8  9  1  0
  9 10  2  0
 10 11  1  0
 11 12  1  0
 12 13  2  0
 13 14  1  0
 13 15  1  0
 15 16  2  0
 16 17  1  0
 17 18  2  0
 18 19  1  0
 10  5  1  0
 18 12  1  0
M  END
$$$$
674754
     RDKit          2D

 35 38  0  0  0  0  0  0  0  0999 V2000
    2.5000    0.0000    0.0000 O   0  0  0  0  0  0  0  0  0  0  0  0
    3.7990    0.7500    0.0000 C   0  0  0  0  0  0  0  0  0  0  0  0
    3.7990    2.2500    0.0000 O   0  0  0  0  0  0  0  0  0  0  0  0
    5.0981    0.0000    0.0000 C   0  0  0  0  0  0  0  0  0  0  0  0
    6.3971    0.7500    0.0000 C   0  0  0  0  0  0  0  0  0  0  0  0
    7.6962   -0.0000    0.0000 C   0  0  0  0  0  0  0  0  0  0  0  0
    7.6962   -1.5000    0.0000 O   0  0  0  0  0  0  0  0  0  0  0  0
    8.9952    0.7500    0.0000 O   0  0  0  0  0  0  0  0  0  0  0  0
   -3.0000   -5.1962    0.0000 O   0  0  0  0  0  0  0  0  0  0  0  0
   -1.5000   -5.1962    0.0000 C   0  0  0  0  0  0  0  0  0  0  0  0
   -0.7500   -6.4952    0.0000 O   0  0  0  0  0  0  0  0  0  0  0  0
   -2.5454   -8.4807    0.0000 C   0  0  0  0  0  0  0  0  0  0  0  0
   -1.8672   -9.6553    0.0000 C   0  0  0  0  0  0  0  0  0  0  0  0
   -1.5000  -10.3923    0.0000 N   0  0  0  0  0  0  0  0  0  0  0  0
   -3.0000  -10.3923    0.0000 C   0  0  0  0  0  0  0  0  0  0  0  0
   -3.7500   -9.0933    0.0000 C   0  0  0  0  0  0  0  0  0  0  0  0
   -3.0000   -7.7942    0.0000 C   0  0  0  0  0  0  0  0  0  0  0  0
   -1.5000   -7.7942    0.0000 C   0  0  0  0  0  0  0  0  0  0  0  0
   -0.7500   -9.0933    0.0000 C   0  0  0  0  0  0  0  0  0  0  0  0
   -0.7500   -3.8971    0.0000 N   0  0  0  0  0  0  0  0  0  0  0  0
    0.7500   -3.8971    0.0000 C   0  0  0  0  0  0  0  0  0  0  0  0
    1.5000   -2.5981    0.0000 C   0  0  0  0  0  0  0  0  0  0  0  0
    0.7500   -1.2990    0.0000 C   0  0  0  0  0  0  0  0  0  0  0  0
    1.5000    0.0000    0.0000 C   0  0  0  0  0  0  0  0  0  0  0  0
    0.7500    1.2990    0.0000 C   0  0  0  0  0  0  0  0  0  0  0  0
   -0.7500    1.2990    0.0000 C   0  0  0  0  0  0  0  0  0  0  0  0
   -1.5000    0.0000    0.0000 C   0  0  0  0  0  0  0  0  0  0  0  0
   -0.7500   -1.2990    0.0000 C   0  0  0  0  0  0  0  0  0  0  0  0
   -1.5000   -2.5981    0.0000 C   0  0  0  0  0  0  0  0  0  0  0  0
   -3.0000   -2.5981    0.0000 C   0  0  0  0  0  0  0  0  0  0  0  0
   -3.7500   -1.2990    0.0000 C   0  0  0  0  0  0  0  0  0  0  0  0
   -5.2500   -1.2990    0.0000 C   0  0  0  0  0  0  0  0  0  0  0  0
   -6.0000   -2.5981    0.0000 C   0  0  0  0  0  0  0  0  0  0  0  0
   -5.2500   -3.8971    0.0000 C   0  0  0  0  0  0  0  0  0  0  0  0
   -3.7500   -3.8971    0.0000 C   0  0  0  0  0  0  0  0  0  0  0  0
  1  2  1  0
  2  3  2  0
  2  4  1  0
  4  5  1  0
  5  6  1  0
  6  7  2  0
  6  8  1  0
  9 10  2  0
 10 11  1  0
 12 11  1  1
 12 13  1  0
 13 14  1  0
 14 15  1  0
 15 16  1  0
 16 17  1  0
 17 18  1  0
 18 19  1  0
 10 20  1  0
 20 21  1  0
 21 22  1  0
 22 23  1  0
 23 24  2  0
 24 25  1  0
 25 26  2  0
 26 27  1  0
 27 28  2  0
 28 29  1  0
 29 30  1  1
 30 31  2  0
 31 32  1  0
 32 33  2  0
 33 34  1  0
 34 35  2  0
 17 12  1  0
 19 14  1  0
 29 20  1  0
 28 23  1  0
 35 30  1  0
M  END
$$$$
139225
     RDKit          2D

 22 24  0  0  0  0  0  0  0  0999 V2000
    6.3579   -8.4259    0.0000 O   0  0  0  0  0  0  0  0  0  0  0  0
    6.2011   -6.9341    0.0000 C   0  0  0  0  0  0  0  0  0  0  0  0
    7.4146   -6.0524    0.0000 O   0  0  0  0  0  0  0  0  0  0  0  0
    4.8308   -6.3240    0.0000 C   0  0  0  0  0  0  0  0  0  0  0  0
    4.6740   -4.8322    0.0000 C   0  0  0  0  0  0  0  0  0  0  0  0
    3.3037   -4.2221    0.0000 C   0  0  0  0  0  0  0  0  0  0  0  0
    2.9918   -2.7549    0.0000 O   0  0  0  0  0  0  0  0  0  0  0  0
    1.5000   -2.5981    0.0000 C   0  0  0  0  0  0  0  0  0  0  0  0
    0.7500   -1.2990    0.0000 C   0  0  0  0  0  0  0  0  0  0  0  0
    1.5000    0.0000    0.0000 C   0  0  0  0  0  0  0  0  0  0  0  0
    0.7500    1.2990    0.0000 C   0  0  0  0  0  0  0  0  0  0  0  0
   -0.7500    1.2990    0.0000 C   0  0  0  0  0  0  0  0  0  0  0  0
   -1.5000    0.0000    0.0000 C   0  0  0  0  0  0  0  0  0  0  0  0
   -0.7500   -1.2990    0.0000 C   0  0  0  0  0  0  0  0  0  0  0  0
    0.8899   -3.9684    0.0000 C   0  0  0  0  0  0  0  0  0  0  0  0
    2.0046   -4.9721    0.0000 N   0  0  0  0  0  0  0  0  0  0  0  0
   -0.5773   -4.2803    0.0000 C   0  0  0  0  0  0  0  0  0  0  0  0
   -1.5810   -3.1655    0.0000 C   0  0  0  0  0  0  0  0  0  0  0  0
   -3.0482   -3.4774    0.0000 C   0  0  0  0  0  0  0  0  0  0  0  0
   -3.5118   -4.9040    0.0000 C   0  0  0  0  0  0  0  0  0  0  0  0
   -2.5081   -6.0187    0.0000 C   0  0  0  0  0  0  0  0  0  0  0  0
   -1.0409   -5.7068    0.0000 C   0  0  0  0  0  0  0  0  0  0  0  0
  1  2  1  0
  2  3  2  0
  2  4  1  0
  4  5  1  0
  5  6  1  0
  6  7  1  0
  7  8  1  0
  8  9  1  0
  9 10  2  0
 10 11  1  0
 11 12  2  0
 12 13  1  0
 13 14  2  0
  8 15  2  0
 15 16  1  0
 15 17  1  0
 17 18  2  0
 18 19  1  0
 19 20  2  0
 20 21  1  0
 21 22  2  0
 16  6  2  0
 14  9  1  0
 22 17  1  0
M  END
$$$$
11002
     RDKit          2D

 19 19  0  0  0  0  0  0  0  0999 V2000
    7.5000   -2.5981    0.0000 O   0  0  0  0  0  0  0  0  0  0  0  0
    6.0000   -2.5981    0.0000 C   0  0  0  0  0  0  0  0  0  0  0  0
    5.2500   -3.8971    0.0000 O   0  0  0  0  0  0  0  0  0  0  0  0
    5.2500   -1.2990    0.0000 C   0  0  0  0  0  0  0  0  0  0  0  0
    3.7500   -1.2990    0.0000 C   0  0  0  0  0  0  0  0  0  0  0  0
    3.0000    0.0000    0.0000 C   0  0  0  0  0  0  0  0  0  0  0  0
    1.5000    0.0000    0.0000 C   0  0  0  0  0  0  0  0  0  0  0  0
    0.7500   -1.2990    0.0000 C   0  0  0  0  0  0  0  0  0  0  0  0
   -0.7500   -1.2990    0.0000 C   0  0  0  0  0  0  0  0  0  0  0  0
   -1.5000    0.0000    0.0000 C   0  0  0  0  0  0  0  0  0  0  0  0
   -0.7500    1.2990    0.0000 C   0  0  0  0  0  0  0  0  0  0  0  0
    0.7500    1.2990    0.0000 C   0  0  0  0  0  0  0  0  0  0  0  0
   -3.0000    0.0000    0.0000 N   0  0  0  0  0  0  0  0  0  0  0  0
   -3.7500    1.2990    0.0000 C   0  0  0  0  0  0  0  0  0  0  0  0
   -5.2500    1.2990    0.0000 C   0  0  0  0  0  0  0  0  0  0  0  0
   -6.0000    2.5981    0.0000 Cl  0  0  0  0  0  0  0  0  0  0  0  0
   -3.7500   -1.2990    0.0000 C   0  0  0  0  0  0  0  0  0  0  0  0
   -5.2500   -1.2990    0.0000 C   0  0  0  0  0  0  0  0  0  0  0  0
   -6.0000   -2.5981    0.0000 Cl  0  0  0  0  0  0  0  0  0  0  0  0
  1  2  1  0
  2  3  2  0
  2  4  1  0
  4  5  1  0
  5  6  1  0
  6  7  1  0
  7  8  2  0
  8  9  1  0
  9 10  2  0
 10 11  1  0
 11 12  2  0
 10 13  1  0
 13 14  1  0
 14 15  1  0
 15 16  1  0
 13 17  1  0
 17 18  1  0
 18 19  1  0
 12  7  1  0
M  END
$$$$
397873
     RDKit          2D

 12 12  0  0  0  0  0  0  0  0999 V2000
    7.5000   -2.5981    0.0000 O   0  0  0  0  0  0  0  0  0  0  0  0
    6.0000   -2.5981    0.0000 C   0  0  0  0  0  0  0  0  0  0  0  0
    5.2500   -3.8971    0.0000 O   0  0  0  0  0  0  0  0  0  0  0  0
    5.2500   -1.2990    0.0000 C   0  0  0  0  0  0  0  0  0  0  0  0
    3.7500   -1.2990    0.0000 C   0  0  0  0  0  0  0  0  0  0  0  0
    3.0000    0.0000    0.0000 C   0  0  0  0  0  0  0  0  0  0  0  0
    1.5000    0.0000    0.0000 C   0  0  0  0  0  0  0  0  0  0  0  0
    0.7500   -1.2990    0.0000 C   0  0  0  0  0  0  0  0  0  0  0  0
   -0.7500   -1.2990    0.0000 C   0  0  0  0  0  0  0  0  0  0  0  0
   -1.5000    0.0000    0.0000 C   0  0  0  0  0  0  0  0  0  0  0  0
   -0.7500    1.2990    0.0000 C   0  0  0  0  0  0  0  0  0  0  0  0
    0.7500    1.2990    0.0000 C   0  0  0  0  0  0  0  0  0  0  0  0
  1  2  1  0
  2  3  2  0
  2  4  1  0
  4  5  1  0
  5  6  1  0
  6  7  1  0
  7  8  2  0
  8  9  1  0
  9 10  2  0
 10 11  1  0
 11 12  2  0
 12  7  1  0
M  END
$$$$
675297
     RDKit          2D

 26 27  0  0  0  0  0  0  0  0999 V2000
    8.2500   -3.8971    0.0000 O   0  0  0  0  0  0  0  0  0  0  0  0
    7.5000   -2.5981    0.0000 C   0  0  0  0  0  0  0  0  0  0  0  0
    8.2500   -1.2990    0.0000 O   0  0  0  0  0  0  0  0  0  0  0  0
    6.0000   -2.5981    0.0000 C   0  0  0  0  0  0  0  0  0  0  0  0
    5.2500   -1.2990    0.0000 C   0  0  0  0  0  0  0  0  0  0  0  0
    3.7500   -1.2990    0.0000 N   0  0  0  0  0  0  0  0  0  0  0  0
    3.0000    0.0000    0.0000 C   0  0  0  0  0  0  0  0  0  0  0  0
    3.7500    1.2990    0.0000 O   0  0  0  0  0  0  0  0  0  0  0  0
    1.5000    0.0000    0.0000 C   0  0  0  0  0  0  0  0  0  0  0  0
    0.7500   -1.2990    0.0000 C   0  0  0  0  0  0  0  0  0  0  0  0
   -0.7500   -1.2990    0.0000 C   0  0  0  0  0  0  0  0  0  0  0  0
   -1.5000    0.0000    0.0000 C   0  0  0  0  0  0  0  0  0  0  0  0
   -0.7500    1.2990    0.0000 C   0  0  0  0  0  0  0  0  0  0  0  0
    0.7500    1.2990    0.0000 C   0  0  0  0  0  0  0  0  0  0  0  0
   -3.0000    0.0000    0.0000 N   0  0  0  0  0  0  0  0  0  0  0  0
   -3.7500    1.2990    0.0000 N   0  0  0  0  0  0  0  0  0  0  0  0
   -5.2500    1.2990    0.0000 C   0  0  0  0  0  0  0  0  0  0  0  0
   -6.0000    2.5981    0.0000 C   0  0  0  0  0  0  0  0  0  0  0  0
   -7.5000    2.5981    0.0000 C   0  0  0  0  0  0  0  0  0  0  0  0
   -8.2500    1.2990    0.0000 C   0  0  0  0  0  0  0  0  0  0  0  0
   -9.7500    1.2990    0.0000 O   0  0  0  0  0  0  0  0  0  0  0  0
   -7.5000    0.0000    0.0000 C   0  0  0  0  0  0  0  0  0  0  0  0
   -6.0000    0.0000    0.0000 C   0  0  0  0  0  0  0  0  0  0  0  0
   -8.2500   -1.2990    0.0000 C   0  0  0  0  0  0  0  0  0  0  0  0
   -9.7500   -1.2990    0.0000 O   0  0  0  0  0  0  0  0  0  0  0  0
   -7.5000   -2.5981    0.0000 O   0  0  0  0  0  0  0  0  0  0  0  0
  1  2  1  0
  2  3  2  0
  2  4  1  0
  4  5  1  0
  5  6  1  0
  6  7  1  0
  7  8  2  0
  7  9  1  0
  9 10  2  0
 10 11  1  0
 11 12  2  0
 12 13  1  0
 13 14  2  0
 12 15  1  0
 15 16  2  3
 16 17  1  0
 17 18  2  0
 18 19  1  0
 19 20  2  0
 20 21  1  0
 20 22  1  0
 22 23  2  0
 22 24  1  0
 24 25  2  0
 24 26  1  0
 14  9  1  0
 23 17  1  0
M  END
$$$$
675055
     RDKit          2D

 23 25  0  0  0  0  0  0  0  0999 V2000
    7.5000   -2.5981    0.0000 O   0  0  0  0  0  0  0  0  0  0  0  0
    6.0000   -2.5981    0.0000 C   0  0  0  0  0  0  0  0  0  0  0  0
    5.2500   -3.8971    0.0000 O   0  0  0  0  0  0  0  0  0  0  0  0
    5.2500   -1.2990    0.0000 C   0  0  0  0  0  0  0  0  0  0  0  0
    3.7500   -1.2990    0.0000 N   0  0  0  0  0  0  0  0  0  0  0  0
    3.0000    0.0000    0.0000 C   0  0  0  0  0  0  0  0  0  0  0  0
    3.7500    1.2990    0.0000 O   0  0  0  0  0  0  0  0  0  0  0  0
    1.5000    0.0000    0.0000 C   0  0  0  0  0  0  0  0  0  0  0  0
    0.7500   -1.2990    0.0000 C   0  0  0  0  0  0  0  0  0  0  0  0
   -0.7500   -1.2990    0.0000 C   0  0  0  0  0  0  0  0  0  0  0  0
   -1.5000    0.0000    0.0000 C   0  0  0  0  0  0  0  0  0  0  0  0
   -0.7500    1.2990    0.0000 C   0  0  0  0  0  0  0  0  0  0  0  0
    0.7500    1.2990    0.0000 C   0  0  0  0  0  0  0  0  0  0  0  0
    1.5000    3.5981    0.0000 C   0  0  0  0  0  0  0  0  0  0  0  0
    0.7500    2.2990    0.0000 N   0  0  0  0  0  0  0  0  0  0  0  0
    2.2500    2.2990    0.0000 C   0  0  0  0  0  0  0  0  0  0  0  0
    3.0000    3.5981    0.0000 N   0  0  0  0  0  0  0  0  0  0  0  0
   -0.2010    4.3481    0.0000 C   0  0  0  0  0  0  0  0  0  0  0  0
   -1.5000    3.5981    0.0000 N   0  0  0  0  0  0  0  0  0  0  0  0
   -0.7500    4.8971    0.0000 C   0  0  0  0  0  0  0  0  0  0  0  0
    0.7500    4.8971    0.0000 N   0  0  0  0  0  0  0  0  0  0  0  0
    2.2500    4.8971    0.0000 C   0  0  0  0  0  0  0  0  0  0  0  0
   -0.7500    2.2990    0.0000 C   0  0  0  0  0  0  0  0  0  0  0  0
  1  2  1  0
  2  3  2  0
  2  4  1  0
  4  5  1  0
  5  6  1  0
  6  7  2  0
  6  8  1  0
  8  9  2  0
  9 10  1  0
 10 11  2  0
 11 12  1  0
 12 13  2  0
 14 15  1  0
 15 16  1  0
 16 17  1  0
 17 18  1  0
 18 19  1  0
 19 20  1  0
 20 21  1  0
 21 22  1  0
 19 23  1  0
 13  8  1  0
 21 14  1  0
 23 15  1  0
 22 17  1  0
M  END
$$$$
111185
     RDKit          2D

 27 29  0  0  0  0  0  0  0  0999 V2000
    8.2500   -3.8971    0.0000 O   0  0  0  0  0  0  0  0  0  0  0  0
    7.5000   -2.5981    0.0000 C   0  0  0  0  0  0  0  0  0  0  0  0
    8.2500   -1.2990    0.0000 O   0  0  0  0  0  0  0  0  0  0  0  0
    6.0000   -2.5981    0.0000 C   0  0  0  0  0  0  0  0  0  0  0  0
    5.2500   -1.2990    0.0000 O   0  0  0  0  0  0  0  0  0  0  0  0
    3.7500   -1.2990    0.0000 C   0  0  0  0  0  0  0  0  0  0  0  0
    3.0000    0.0000    0.0000 C   0  0  0  0  0  0  0  0  0  0  0  0
    1.5000    0.0000    0.0000 N   0  0  0  0  0  0  0  0  0  0  0  0
    0.7500   -1.2990    0.0000 C   0  0  0  0  0  0  0  0  0  0  0  0
   -0.7500   -1.2990    0.0000 C   0  0  0  0  0  0  0  0  0  0  0  0
   -1.5000    0.0000    0.0000 N   0  0  0  0  0  0  0  0  0  0  0  0
   -0.7500    1.2990    0.0000 C   0  0  0  0  0  0  0  0  0  0  0  0
    0.7500    1.2990    0.0000 C   0  0  0  0  0  0  0  0  0  0  0  0
   -3.0000    0.0000    0.0000 C   0  0  0  0  0  0  0  0  0  0  0  0
   -3.7500    1.2990    0.0000 C   0  0  0  0  0  0  0  0  0  0  0  0
   -3.0000    2.5981    0.0000 C   0  0  0  0  0  0  0  0  0  0  0  0
   -3.7500    3.8971    0.0000 C   0  0  0  0  0  0  0  0  0  0  0  0
   -5.2500    3.8971    0.0000 C   0  0  0  0  0  0  0  0  0  0  0  0
   -6.0000    2.5981    0.0000 C   0  0  0  0  0  0  0  0  0  0  0  0
   -5.2500    1.2990    0.0000 C   0  0  0  0  0  0  0  0  0  0  0  0
   -3.7500   -1.2990    0.0000 C   0  0  0  0  0  0  0  0  0  0  0  0
   -5.2500   -1.2990    0.0000 C   0  0  0  0  0  0  0  0  0  0  0  0
   -6.0000   -2.5981    0.0000 C   0  0  0  0  0  0  0  0  0  0  0  0
   -5.2500   -3.8971    0.0000 C   0  0  0  0  0  0  0  0  0  0  0  0
   -6.0000   -5.1962    0.0000 Cl  0  0  0  0  0  0  0  0  0  0  0  0
   -3.7500   -3.8971    0.0000 C   0  0  0  0  0  0  0  0  0  0  0  0
   -3.0000   -2.5981    0.0000 C   0  0  0  0  0  0  0  0  0  0  0  0
  1  2  1  0
  2  3  2  0
  2  4  1  0
  4  5  1  0
  5  6  1  0
  6  7  1  0
  7  8  1  0
  8  9  1  0
  9 10  1  0
 10 11  1  0
 11 12  1  0
 12 13  1  0
 11 14  1  0
 14 15  1  0
 15 16  2  0
 16 17  1  0
 17 18  2  0
 18 19  1  0
 19 20  2  0
 14 21  1  0
 21 22  2  0
 22 23  1  0
 23 24  2  0
 24 25  1  0
 24 26  1  0
 26 27  2  0
 13  8  1  0
 20 15  1  0
 27 21  1  0
M  END
$$$$
675142
     RDKit          2D

 27 29  0  0  0  0  0  0  0  0999 V2000
    8.2500   -3.8971    0.0000 O   0  0  0  0  0  0  0  0  0  0  0  0
    7.5000   -2.5981    0.0000 C   0  0  0  0  0  0  0  0  0  0  0  0
    8.2500   -1.2990    0.0000 O   0  0  0  0  0  0  0  0  0  0  0  0
    6.0000   -2.5981    0.0000 C   0  0  0  0  0  0  0  0  0  0  0  0
    5.2500   -1.2990    0.0000 O   0  0  0  0  0  0  0  0  0  0  0  0
    3.7500   -1.2990    0.0000 C   0  0  0  0  0  0  0  0  0  0  0  0
    3.0000    0.0000    0.0000 C   0  0  0  0  0  0  0  0  0  0  0  0
    1.5000    0.0000    0.0000 N   0  0  0  0  0  0  0  0  0  0  0  0
    0.7500   -1.2990    0.0000 C   0  0  0  0  0  0  0  0  0  0  0  0
   -0.7500   -1.2990    0.0000 C   0  0  0  0  0  0  0  0  0  0  0  0
   -1.5000    0.0000    0.0000 N   0  0  0  0  0  0  0  0  0  0  0  0
   -0.7500    1.2990    0.0000 C   0  0  0  0  0  0  0  0  0  0  0  0
    0.7500    1.2990    0.0000 C   0  0  0  0  0  0  0  0  0  0  0  0
   -3.0000    0.0000    0.0000 C   0  0  0  0  0  0  0  0  0  0  0  0
   -3.7500    1.2990    0.0000 C   0  0  0  0  0  0  0  0  0  0  0  0
   -3.0000    2.5981    0.0000 C   0  0  0  0  0  0  0  0  0  0  0  0
   -3.7500    3.8971    0.0000 C   0  0  0  0  0  0  0  0  0  0  0  0
   -5.2500    3.8971    0.0000 C   0  0  0  0  0  0  0  0  0  0  0  0
   -6.0000    2.5981    0.0000 C   0  0  0  0  0  0  0  0  0  0  0  0
   -5.2500    1.2990    0.0000 C   0  0  0  0  0  0  0  0  0  0  0  0
   -3.7500   -1.2990    0.0000 C   0  0  0  0  0  0  0  0  0  0  0  0
   -5.2500   -1.2990    0.0000 C   0  0  0  0  0  0  0  0  0  0  0  0
   -6.0000   -2.5981    0.0000 C   0  0  0  0  0  0  0  0  0  0  0  0
   -5.2500   -3.8971    0.0000 C   0  0  0  0  0  0  0  0  0  0  0  0
   -6.0000   -5.1962    0.0000 Cl  0  0  0  0  0  0  0  0  0  0  0  0
   -3.7500   -3.8971    0.0000 C   0  0  0  0  0  0  0  0  0  0  0  0
   -3.0000   -2.5981    0.0000 C   0  0  0  0  0  0  0  0  0  0  0  0
  1  2  1  0
  2  3  2  0
  2  4  1  0
  4  5  1  0
  5  6  1  0
  6  7  1  0
  7  8  1  0
  8  9  1  0
  9 10  1  0
 10 11  1  0
 11 12  1  0
 12 13  1  0
 14 11  1  1
 14 15  1  0
 15 16  2  0
 16 17  1  0
 17 18  2  0
 18 19  1  0
 19 20  2  0
 14 21  1  0
 21 22  2  0
 22 23  1  0
 23 24  2  0
 24 25  1  0
 24 26  1  0
 26 27  2  0
 13  8  1  0
 20 15  1  0
 27 21  1  0
M  END
$$$$
1377990
     RDKit          2D

 24 27  0  0  0  0  0  0  0  0999 V2000
   -4.9620    3.6981    0.0000 O   0  0  0  0  0  0  0  0  0  0  0  0
   -3.9583    2.5833    0.0000 C   0  0  0  0  0  0  0  0  0  0  0  0
   -2.4911    2.8952    0.0000 O   0  0  0  0  0  0  0  0  0  0  0  0
   -4.4218    1.1568    0.0000 C   0  0  0  0  0  0  0  0  0  0  0  0
   -3.4182    0.0420    0.0000 S   0  0  0  0  0  0  0  0  0  0  0  0
   -3.8817   -1.3846    0.0000 C   0  0  0  0  0  0  0  0  0  0  0  0
   -5.3083   -1.8481    0.0000 N   0  0  0  0  0  0  0  0  0  0  0  0
   -5.3083   -3.3481    0.0000 N   0  0  0  0  0  0  0  0  0  0  0  0
   -3.8817   -3.8116    0.0000 C   0  0  0  0  0  0  0  0  0  0  0  0
   -3.4182   -5.2382    0.0000 Br  0  0  0  0  0  0  0  0  0  0  0  0
   -3.0000   -2.5981    0.0000 N   0  0  0  0  0  0  0  0  0  0  0  0
   -1.5000   -2.5981    0.0000 C   0  0  0  0  0  0  0  0  0  0  0  0
   -0.7500   -3.8971    0.0000 C   0  0  0  0  0  0  0  0  0  0  0  0
    0.7500   -3.8971    0.0000 C   0  0  0  0  0  0  0  0  0  0  0  0
    1.5000   -2.5981    0.0000 C   0  0  0  0  0  0  0  0  0  0  0  0
    3.0000   -2.5981    0.0000 C   0  0  0  0  0  0  0  0  0  0  0  0
    4.2990   -1.8481    0.0000 C   0  0  0  0  0  0  0  0  0  0  0  0
    4.2990   -3.3481    0.0000 C   0  0  0  0  0  0  0  0  0  0  0  0
    0.7500   -1.2990    0.0000 C   0  0  0  0  0  0  0  0  0  0  0  0
    1.5000    0.0000    0.0000 C   0  0  0  0  0  0  0  0  0  0  0  0
    0.7500    1.2990    0.0000 C   0  0  0  0  0  0  0  0  0  0  0  0
   -0.7500    1.2990    0.0000 C   0  0  0  0  0  0  0  0  0  0  0  0
   -1.5000    0.0000    0.0000 C   0  0  0  0  0  0  0  0  0  0  0  0
   -0.7500   -1.2990    0.0000 C   0  0  0  0  0  0  0  0  0  0  0  0
  1  2  1  0
  2  3  2  0
  2  4  1  0
  4  5  1  0
  5  6  1  0
  6  7  2  0
  7  8  1  0
  8  9  2  0
  9 10  1  0
  9 11  1  0
 11 12  1  0
 12 13  2  0
 13 14  1  0
 14 15  2  0
 15 16  1  0
 16 17  1  0
 17 18  1  0
 15 19  1  0
 19 20  2  0
 20 21  1  0
 21 22  2  0
 22 23  1  0
 23 24  2  0
 11  6  1  0
 24 12  1  0
 18 16  1  0
 24 19  1  0
M  END
$$$$
675024
     RDKit          2D

 10  9  0  0  0  0  0  0  0  0999 V2000
   -1.2990    0.7500    0.0000 O   0  0  0  0  0  0  0  0  0  0  0  0
    0.0000    0.0000    0.0000 C   0  0  0  0  0  0  0  0  0  0  0  0
   -0.0000   -1.5000    0.0000 O   0  0  0  0  0  0  0  0  0  0  0  0
    1.2990    0.7500    0.0000 C   0  0  0  0  0  0  0  0  0  0  0  0
    1.2990    2.2500    0.0000 S   0  0  0  0  0  0  0  0  0  0  0  0
    2.5981   -0.0000    0.0000 C   0  0  0  0  0  0  0  0  0  0  0  0
    2.5981   -1.5000    0.0000 S   0  0  0  0  0  0  0  0  0  0  0  0
    3.8971    0.7500    0.0000 C   0  0  0  0  0  0  0  0  0  0  0  0
    3.8971    2.2500    0.0000 O   0  0  0  0  0  0  0  0  0  0  0  0
    5.1962   -0.0000    0.0000 O   0  0  0  0  0  0  0  0  0  0  0  0
  1  2  1  0
  2  3  2  0
  2  4  1  0
  4  5  1  6
  4  6  1  0
  6  7  1  1
  6  8  1  0
  8  9  2  0
  8 10  1  0
M  END
$$$$
1540479
     RDKit          2D

 68 73  0  0  0  0  0  0  0  0999 V2000
   -2.2500    4.8971    0.0000 O   0  0  0  0  0  0  0  0  0  0  0  0
   -0.7500    4.8971    0.0000 C   0  0  0  0  0  0  0  0  0  0  0  0
    0.0000    3.5981    0.0000 O   0  0  0  0  0  0  0  0  0  0  0  0
    0.0000    6.1962    0.0000 C   0  0  0  0  0  0  0  0  0  0  0  0
    1.5000    6.1962    0.0000 C   0  0  0  0  0  0  0  0  0  0  0  0
    2.2500    7.4952    0.0000 C   0  0  0  0  0  0  0  0  0  0  0  0
    1.5000    8.7942    0.0000 O   0  0  0  0  0  0  0  0  0  0  0  0
    3.7500    7.4952    0.0000 O   0  0  0  0  0  0  0  0  0  0  0  0
   -1.7595   -6.1225    0.0000 O   0  0  0  0  0  0  0  0  0  0  0  0
   -0.3107   -5.7342    0.0000 C   0  0  0  0  0  0  0  0  0  0  0  0
    1.1382   -5.3460    0.0000 C   0  0  0  0  0  0  0  0  0  0  0  0
    0.7500   -3.8971    0.0000 N   0  0  0  0  0  0  0  0  0  0  0  0
   -0.6989   -4.2853    0.0000 C   0  0  0  0  0  0  0  0  0  0  0  0
    1.5000   -2.5981    0.0000 C   0  0  0  0  0  0  0  0  0  0  0  0
    3.0000   -2.5981    0.0000 O   0  0  0  0  0  0  0  0  0  0  0  0
    0.7500   -1.2990    0.0000 C   0  0  0  0  0  0  0  0  0  0  0  0
    1.5000    0.0000    0.0000 C   0  0  0  0  0  0  0  0  0  0  0  0
    0.7500    1.2990    0.0000 C   0  0  0  0  0  0  0  0  0  0  0  0
   -0.7500    1.2990    0.0000 C   0  0  0  0  0  0  0  0  0  0  0  0
   -1.5000    2.5981    0.0000 F   0  0  0  0  0  0  0  0  0  0  0  0
   -1.5000    0.0000    0.0000 C   0  0  0  0  0  0  0  0  0  0  0  0
   -3.0000    0.0000    0.0000 F   0  0  0  0  0  0  0  0  0  0  0  0
   -0.7500   -1.2990    0.0000 C   0  0  0  0  0  0  0  0  0  0  0  0
   -1.5000   -2.5981    0.0000 N   0  0  0  0  0  0  0  0  0  0  0  0
   -3.0000   -2.5981    0.0000 C   0  0  0  0  0  0  0  0  0  0  0  0
   -3.7500   -1.2990    0.0000 C   0  0  0  0  0  0  0  0  0  0  0  0
   -5.2500   -1.2990    0.0000 C   0  0  0  0  0  0  0  0  0  0  0  0
   -6.0000   -2.5981    0.0000 C   0  0  0  0  0  0  0  0  0  0  0  0
   -7.5000   -2.5981    0.0000 I   0  0  0  0  0  0  0  0  0  0  0  0
   -5.2500   -3.8971    0.0000 C   0  0  0  0  0  0  0  0  0  0  0  0
   -3.7500   -3.8971    0.0000 C   0  0  0  0  0  0  0  0  0  0  0  0
   -3.0000   -5.1962    0.0000 F   0  0  0  0  0  0  0  0  0  0  0  0
    0.0776   -7.1831    0.0000 C   0  0  0  0  0  0  0  0  0  0  0  0
   -0.9831   -8.2438    0.0000 C   0  0  0  0  0  0  0  0  0  0  0  0
   -0.5949   -9.6927    0.0000 C   0  0  0  0  0  0  0  0  0  0  0  0
    0.8540  -10.0809    0.0000 C   0  0  0  0  0  0  0  0  0  0  0  0
    1.9147   -9.0202    0.0000 C   0  0  0  0  0  0  0  0  0  0  0  0
    1.5265   -7.5713    0.0000 N   0  0  0  0  0  0  0  0  0  0  0  0
    9.7405   -6.1225    0.0000 O   0  0  0  0  0  0  0  0  0  0  0  0
   11.1893   -5.7342    0.0000 C   0  0  0  0  0  0  0  0  0  0  0  0
   12.6382   -5.3460    0.0000 C   0  0  0  0  0  0  0  0  0  0  0  0
   12.2500   -3.8971    0.0000 N   0  0  0  0  0  0  0  0  0  0  0  0
   10.8011   -4.2853    0.0000 C   0  0  0  0  0  0  0  0  0  0  0  0
   13.0000   -2.5981    0.0000 C   0  0  0  0  0  0  0  0  0  0  0  0
   14.5000   -2.5981    0.0000 O   0  0  0  0  0  0  0  0  0  0  0  0
   12.2500   -1.2990    0.0000 C   0  0  0  0  0  0  0  0  0  0  0  0
   13.0000    0.0000    0.0000 C   0  0  0  0  0  0  0  0  0  0  0  0
   12.2500    1.2990    0.0000 C   0  0  0  0  0  0  0  0  0  0  0  0
   10.7500    1.2990    0.0000 C   0  0  0  0  0  0  0  0  0  0  0  0
   10.0000    2.5981    0.0000 F   0  0  0  0  0  0  0  0  0  0  0  0
   10.0000    0.0000    0.0000 C   0  0  0  0  0  0  0  0  0  0  0  0
    8.5000    0.0000    0.0000 F   0  0  0  0  0  0  0  0  0  0  0  0
   10.7500   -1.2990    0.0000 C   0  0  0  0  0  0  0  0  0  0  0  0
   10.0000   -2.5981    0.0000 N   0  0  0  0  0  0  0  0  0  0  0  0
    8.5000   -2.5981    0.0000 C   0  0  0  0  0  0  0  0  0  0  0  0
    7.7500   -1.2990    0.0000 C   0  0  0  0  0  0  0  0  0  0  0  0
    6.2500   -1.2990    0.0000 C   0  0  0  0  0  0  0  0  0  0  0  0
    5.5000   -2.5981    0.0000 C   0  0  0  0  0  0  0  0  0  0  0  0
    4.0000   -2.5981    0.0000 I   0  0  0  0  0  0  0  0  0  0  0  0
    6.2500   -3.8971    0.0000 C   0  0  0  0  0  0  0  0  0  0  0  0
    7.7500   -3.8971    0.0000 C   0  0  0  0  0  0  0  0  0  0  0  0
    8.5000   -5.1962    0.0000 F   0  0  0  0  0  0  0  0  0  0  0  0
   11.5776   -7.1831    0.0000 C   0  0  0  0  0  0  0  0  0  0  0  0
   10.5169   -8.2438    0.0000 C   0  0  0  0  0  0  0  0  0  0  0  0
   10.9051   -9.6927    0.0000 C   0  0  0  0  0  0  0  0  0  0  0  0
   12.3540  -10.0809    0.0000 C   0  0  0  0  0  0  0  0  0  0  0  0
   13.4147   -9.0202    0.0000 C   0  0  0  0  0  0  0  0  0  0  0  0
   13.0265   -7.5713    0.0000 N   0  0  0  0  0  0  0  0  0  0  0  0
  1  2  1  0
  2  3  2  0
  2  4  1  0
  4  5  2  0
  5  6  1  0
  6  7  2  0
  6  8  1  0
  9 10  1  0
 10 11  1  0
 11 12  1  0
 12 13  1  0
 12 14  1  0
 14 15  2  0
 14 16  1  0
 16 17  2  0
 17 18  1  0
 18 19  2  0
 19 20  1  0
 19 21  1  0
 21 22  1  0
 21 23  2  0
 23 24  1  0
 24 25  1  0
 25 26  2  0
 26 27  1  0
 27 28  2  0
 28 29  1  0
 28 30  1  0
 30 31  2  0
 31 32  1  0
 33 10  1  1
 33 34  1  0
 34 35  1  0
 35 36  1  0
 36 37  1  0
 37 38  1  0
 39 40  1  0
 40 41  1  0
 41 42  1  0
 42 43  1  0
 42 44  1  0
 44 45  2  0
 44 46  1  0
 46 47  2  0
 47 48  1  0
 48 49  2  0
 49 50  1  0
 49 51  1  0
 51 52  1  0
 51 53  2  0
 53 54  1  0
 54 55  1  0
 55 56  2  0
 56 57  1  0
 57 58  2  0
 58 59  1  0
 58 60  1  0
 60 61  2  0
 61 62  1  0
 63 40  1  1
 63 64  1  0
 64 65  1  0
 65 66  1  0
 66 67  1  0
 67 68  1  0
 13 10  1  0
 23 16  1  0
 31 25  1  0
 38 33  1  0
 43 40  1  0
 53 46  1  0
 61 55  1  0
 68 63  1  0
M  END
$$$$
1228747
     RDKit          2D

 29 33  0  0  0  0  0  0  0  0999 V2000
    4.1791    8.6583    0.0000 O   0  0  0  0  0  0  0  0  0  0  0  0
    3.7156    7.2317    0.0000 C   0  0  0  0  0  0  0  0  0  0  0  0
    3.2521    5.8051    0.0000 C   0  0  0  0  0  0  0  0  0  0  0  0
    4.2558    4.6904    0.0000 O   0  0  0  0  0  0  0  0  0  0  0  0
    1.7849    5.4933    0.0000 O   0  0  0  0  0  0  0  0  0  0  0  0
    1.3213    4.0667    0.0000 C   0  0  0  0  0  0  0  0  0  0  0  0
   -0.1459    3.7548    0.0000 C   0  0  0  0  0  0  0  0  0  0  0  0
   -0.6094    2.3282    0.0000 C   0  0  0  0  0  0  0  0  0  0  0  0
    0.4886    2.8760    0.0000 C   0  0  0  0  0  0  0  0  0  0  0  0
    1.1686    2.6213    0.0000 C   0  0  0  0  0  0  0  0  0  0  0  0
    1.8615    1.5254    0.0000 C   0  0  0  0  0  0  0  0  0  0  0  0
    2.3250    2.9520    0.0000 C   0  0  0  0  0  0  0  0  0  0  0  0
    0.3943    1.2135    0.0000 N   0  0  0  0  0  4  0  0  0  0  0  0
    1.2760    0.0000    0.0000 C   0  0  0  0  0  0  0  0  0  0  0  0
    0.3943   -1.2135    0.0000 C   0  0  0  0  0  0  0  0  0  0  0  0
   -1.0323   -0.7500    0.0000 C   0  0  0  0  0  0  0  0  0  0  0  0
   -1.0323    0.7500    0.0000 C   0  0  0  0  0  0  0  0  0  0  0  0
    2.2890    7.6953    0.0000 C   0  0  0  0  0  0  0  0  0  0  0  0
    1.9772    9.1625    0.0000 C   0  0  0  0  0  0  0  0  0  0  0  0
    0.5506    9.6260    0.0000 C   0  0  0  0  0  0  0  0  0  0  0  0
   -0.5641    8.6223    0.0000 C   0  0  0  0  0  0  0  0  0  0  0  0
   -0.2523    7.1551    0.0000 C   0  0  0  0  0  0  0  0  0  0  0  0
    1.1743    6.6916    0.0000 C   0  0  0  0  0  0  0  0  0  0  0  0
    5.1422    6.7682    0.0000 C   0  0  0  0  0  0  0  0  0  0  0  0
    5.4541    5.3010    0.0000 C   0  0  0  0  0  0  0  0  0  0  0  0
    6.8807    4.8375    0.0000 C   0  0  0  0  0  0  0  0  0  0  0  0
    7.9954    5.8412    0.0000 C   0  0  0  0  0  0  0  0  0  0  0  0
    7.6835    7.3084    0.0000 C   0  0  0  0  0  0  0  0  0  0  0  0
    6.2569    7.7719    0.0000 C   0  0  0  0  0  0  0  0  0  0  0  0
  1  2  1  0
  2  3  1  0
  3  4  2  0
  3  5  1  0
  6  5  1  6
  6  7  1  0
  8  7  1  1
  8  9  1  0
  9 10  1  0
 11 10  1  6
 11 12  1  0
 11 13  1  0
 13 14  1  0
 14 15  1  0
 15 16  1  0
 16 17  1  0
  2 18  1  0
 18 19  2  0
 19 20  1  0
 20 21  2  0
 21 22  1  0
 22 23  2  0
  2 24  1  0
 24 25  2  0
 25 26  1  0
 26 27  2  0
 27 28  1  0
 28 29  2  0
 12  6  1  0
 13  8  1  0
 17 13  1  0
 23 18  1  0
 29 24  1  0
M  CHG  1  13   1
M  END
$$$$
1355850
     RDKit          2D

 26 28  0  0  0  0  0  0  0  0999 V2000
    5.0981   -1.5000    0.0000 O   0  0  0  0  0  0  0  0  0  0  0  0
    5.0981    0.0000    0.0000 C   0  0  0  0  0  0  0  0  0  0  0  0
    6.3971    0.7500    0.0000 C   0  0  0  0  0  0  0  0  0  0  0  0
    6.3971    2.2500    0.0000 O   0  0  0  0  0  0  0  0  0  0  0  0
    7.6962   -0.0000    0.0000 C   0  0  0  0  0  0  0  0  0  0  0  0
    7.6962   -1.5000    0.0000 O   0  0  0  0  0  0  0  0  0  0  0  0
    8.9952    0.7500    0.0000 O   0  0  0  0  0  0  0  0  0  0  0  0
    3.7990    0.7500    0.0000 C   0  0  0  0  0  0  0  0  0  0  0  0
    3.7990    2.2500    0.0000 O   0  0  0  0  0  0  0  0  0  0  0  0
    2.5000    0.0000    0.0000 O   0  0  0  0  0  0  0  0  0  0  0  0
    1.5000    0.0000    0.0000 C   0  0  0  0  0  0  0  0  0  0  0  0
    0.7500   -1.2990    0.0000 N   0  0  0  0  0  0  0  0  0  0  0  0
   -0.7500   -1.2990    0.0000 C   0  0  0  0  0  0  0  0  0  0  0  0
   -1.5000    0.0000    0.0000 C   0  0  0  0  0  0  0  0  0  0  0  0
   -0.7500    1.2990    0.0000 C   0  0  0  0  0  0  0  0  0  0  0  0
    0.7500    1.2990    0.0000 C   0  0  0  0  0  0  0  0  0  0  0  0
   -0.3647    2.3027    0.0000 C   0  0  0  0  0  0  0  0  0  0  0  0
   -0.3647    3.8027    0.0000 C   0  0  0  0  0  0  0  0  0  0  0  0
   -1.6638    4.5527    0.0000 C   0  0  0  0  0  0  0  0  0  0  0  0
   -1.6638    6.0527    0.0000 N   0  0  0  0  0  0  0  0  0  0  0  0
   -2.9628    6.8027    0.0000 C   0  0  0  0  0  0  0  0  0  0  0  0
   -4.2618    6.0527    0.0000 C   0  0  0  0  0  0  0  0  0  0  0  0
   -4.2618    4.5527    0.0000 N   0  0  0  0  0  0  0  0  0  0  0  0
   -2.9628    3.8027    0.0000 C   0  0  0  0  0  0  0  0  0  0  0  0
   -2.9628    2.3027    0.0000 C   0  0  0  0  0  0  0  0  0  0  0  0
   -1.6638    1.5527    0.0000 C   0  0  0  0  0  0  0  0  0  0  0  0
  1  2  1  0
  2  3  1  0
  3  4  1  0
  3  5  1  0
  5  6  2  0
  5  7  1  0
  2  8  1  0
  8  9  2  0
  8 10  1  0
 11 12  1  0
 12 13  1  0
 13 14  1  0
 14 15  1  0
 15 16  1  0
 16 17  1  0
 17 18  2  0
 18 19  1  0
 19 20  2  0
 20 21  1  0
 21 22  2  0
 22 23  1  0
 23 24  2  0
 24 25  1  0
 25 26  2  0
 16 11  1  0
 26 14  1  0
 26 17  1  0
 24 19  1  0
M  END
$$$$
51162
     RDKit          2D

 26 28  0  0  0  0  0  0  0  0999 V2000
   -3.7500   -1.2990    0.0000 O   0  0  0  0  0  0  0  0  0  0  0  0
   -3.0000   -2.5981    0.0000 C   0  0  0  0  0  0  0  0  0  0  0  0
   -3.7500   -3.8971    0.0000 C   0  0  0  0  0  0  0  0  0  0  0  0
   -5.2500   -3.8971    0.0000 C   0  0  0  0  0  0  0  0  0  0  0  0
   -6.0000   -5.1962    0.0000 C   0  0  0  0  0  0  0  0  0  0  0  0
   -5.2500   -6.4952    0.0000 C   0  0  0  0  0  0  0  0  0  0  0  0
   -3.7500   -6.4952    0.0000 C   0  0  0  0  0  0  0  0  0  0  0  0
   -3.0000   -5.1962    0.0000 N   0  0  0  0  0  0  0  0  0  0  0  0
   -1.5000   -2.5981    0.0000 C   0  0  0  0  0  0  0  0  0  0  0  0
   -0.7500   -3.8971    0.0000 C   0  0  0  0  0  0  0  0  0  0  0  0
    0.7500   -3.8971    0.0000 C   0  0  0  0  0  0  0  0  0  0  0  0
    1.5000   -2.5981    0.0000 N   0  0  0  0  0  0  0  0  0  0  0  0
    0.7500   -1.2990    0.0000 C   0  0  0  0  0  0  0  0  0  0  0  0
    1.5000    0.0000    0.0000 C   0  0  0  0  0  0  0  0  0  0  0  0
    0.7500    1.2990    0.0000 C   0  0  0  0  0  0  0  0  0  0  0  0
   -0.7500    1.2990    0.0000 C   0  0  0  0  0  0  0  0  0  0  0  0
   -1.5000    0.0000    0.0000 C   0  0  0  0  0  0  0  0  0  0  0  0
   -0.7500   -1.2990    0.0000 C   0  0  0  0  0  0  0  0  0  0  0  0
    3.0000    0.0000    0.0000 C   0  0  0  0  0  0  0  0  0  0  0  0
    4.5000    0.0000    0.0000 F   0  0  0  0  0  0  0  0  0  0  0  0
    3.0000    1.5000    0.0000 F   0  0  0  0  0  0  0  0  0  0  0  0
    3.0000   -1.5000    0.0000 F   0  0  0  0  0  0  0  0  0  0  0  0
    1.5000   -5.1962    0.0000 C   0  0  0  0  0  0  0  0  0  0  0  0
    2.2500   -6.4952    0.0000 F   0  0  0  0  0  0  0  0  0  0  0  0
    0.2010   -5.9462    0.0000 F   0  0  0  0  0  0  0  0  0  0  0  0
    2.7990   -4.4462    0.0000 F   0  0  0  0  0  0  0  0  0  0  0  0
  1  2  1  0
  2  3  1  0
  3  4  1  0
  4  5  1  0
  5  6  1  0
  6  7  1  0
  7  8  1  0
  2  9  1  0
  9 10  2  0
 10 11  1  0
 11 12  2  0
 12 13  1  0
 13 14  2  0
 14 15  1  0
 15 16  2  0
 16 17  1  0
 17 18  2  0
 14 19  1  0
 19 20  1  0
 19 21  1  0
 19 22  1  0
 11 23  1  0
 23 24  1  0
 23 25  1  0
 23 26  1  0
  8  3  1  0
 18  9  1  0
 18 13  1  0
M  END
$$$$
83772
     RDKit          2D

 17 17  0  0  0  0  0  0  0  0999 V2000
    4.5000   -2.5981    0.0000 O   0  0  0  0  0  0  0  0  0  0  0  0
    3.7500   -1.2990    0.0000 C   0  0  0  0  0  0  0  0  0  0  0  0
    3.0000   -0.0000    0.0000 C   0  0  0  0  0  0  0  0  0  0  0  0
    1.5000    0.0000    0.0000 C   0  0  0  0  0  0  0  0  0  0  0  0
    0.7500   -1.2990    0.0000 C   0  0  0  0  0  0  0  0  0  0  0  0
   -0.7500   -1.2990    0.0000 C   0  0  0  0  0  0  0  0  0  0  0  0
   -1.5000    0.0000    0.0000 C   0  0  0  0  0  0  0  0  0  0  0  0
   -0.7500    1.2990    0.0000 N   0  0  0  0  0  0  0  0  0  0  0  0
    0.7500    1.2990    0.0000 C   0  0  0  0  0  0  0  0  0  0  0  0
    5.0490   -0.5490    0.0000 P   0  0  0  0  0  0  0  0  0  0  0  0
    6.3481    0.2010    0.0000 O   0  0  0  0  0  0  0  0  0  0  0  0
    5.7990   -1.8481    0.0000 O   0  0  0  0  0  0  0  0  0  0  0  0
    4.2990    0.7500    0.0000 O   0  0  0  0  0  0  0  0  0  0  0  0
    2.4510   -2.0490    0.0000 P   0  0  0  0  0  0  0  0  0  0  0  0
    1.1519   -2.7990    0.0000 O   0  0  0  0  0  0  0  0  0  0  0  0
    3.2010   -3.3481    0.0000 O   0  0  0  0  0  0  0  0  0  0  0  0
    1.6069   -1.1751    0.0000 O   0  0  0  0  0  0  0  0  0  0  0  0
  1  2  1  0
  2  3  1  0
  3  4  1  0
  4  5  2  0
  5  6  1  0
  6  7  2  0
  7  8  1  0
  8  9  2  0
  2 10  1  0
 10 11  2  0
 10 12  1  0
 10 13  1  0
  2 14  1  0
 14 15  2  0
 14 16  1  0
 14 17  1  0
  9  4  1  0
M  END
$$$$
86466
     RDKit          2D

 23 25  0  0  0  0  0  0  0  0999 V2000
   -0.5490   -5.7452    0.0000 O   0  0  0  0  0  0  0  0  0  0  0  0
    0.7500   -6.4952    0.0000 C   0  0  0  0  0  0  0  0  0  0  0  0
    1.5000   -5.1962    0.0000 C   0  0  0  0  0  0  0  0  0  0  0  0
    0.7500   -3.8971    0.0000 C   0  0  0  0  0  0  0  0  0  0  0  0
    1.5000   -2.5981    0.0000 C   0  0  0  0  0  0  0  0  0  0  0  0
    0.7500   -1.2990    0.0000 N   0  0  0  0  0  0  0  0  0  0  0  0
    1.5000    0.0000    0.0000 C   0  0  0  0  0  0  0  0  0  0  0  0
    0.7500    1.2990    0.0000 C   0  0  0  0  0  0  0  0  0  0  0  0
   -0.7500    1.2990    0.0000 C   0  0  0  0  0  0  0  0  0  0  0  0
   -1.5000    0.0000    0.0000 C   0  0  0  0  0  0  0  0  0  0  0  0
   -0.7500   -1.2990    0.0000 C   0  0  0  0  0  0  0  0  0  0  0  0
   -0.0000   -7.7942    0.0000 C   0  0  0  0  0  0  0  0  0  0  0  0
   -1.5000   -7.7942    0.0000 C   0  0  0  0  0  0  0  0  0  0  0  0
   -2.2500   -9.0933    0.0000 C   0  0  0  0  0  0  0  0  0  0  0  0
   -1.5000  -10.3923    0.0000 C   0  0  0  0  0  0  0  0  0  0  0  0
   -0.0000  -10.3923    0.0000 C   0  0  0  0  0  0  0  0  0  0  0  0
    0.7500   -9.0933    0.0000 C   0  0  0  0  0  0  0  0  0  0  0  0
    2.0490   -7.2452    0.0000 C   0  0  0  0  0  0  0  0  0  0  0  0
    2.0490   -8.7452    0.0000 C   0  0  0  0  0  0  0  0  0  0  0  0
    3.3481   -9.4952    0.0000 C   0  0  0  0  0  0  0  0  0  0  0  0
    4.6471   -8.7452    0.0000 C   0  0  0  0  0  0  0  0  0  0  0  0
    4.6471   -7.2452    0.0000 C   0  0  0  0  0  0  0  0  0  0  0  0
    3.3481   -6.4952    0.0000 C   0  0  0  0  0  0  0  0  0  0  0  0
  1  2  1  0
  2  3  1  0
  3  4  1  0
  4  5  1  0
  5  6  1  0
  6  7  1  0
  7  8  1  0
  8  9  1  0
  9 10  1  0
 10 11  1  0
  2 12  1  0
 12 13  2  0
 13 14  1  0
 14 15  2  0
 15 16  1  0
 16 17  2  0
  2 18  1  0
 18 19  2  0
 19 20  1  0
 20 21  2  0
 21 22  1  0
 22 23  2  0
 11  6  1  0
 17 12  1  0
 23 18  1  0
M  END
$$$$
139241
     RDKit          2D

 21 23  0  0  0  0  0  0  0  0999 V2000
    0.2010   -3.3481    0.0000 O   0  0  0  0  0  0  0  0  0  0  0  0
    1.5000   -2.5981    0.0000 C   0  0  0  0  0  0  0  0  0  0  0  0
    2.2500   -3.8971    0.0000 C   0  0  0  0  0  0  0  0  0  0  0  0
    3.7500   -3.8971    0.0000 C   0  0  0  0  0  0  0  0  0  0  0  0
    4.5000   -5.1962    0.0000 N   0  0  0  0  0  0  0  0  0  0  0  0
    5.9918   -5.3529    0.0000 C   0  0  0  0  0  0  0  0  0  0  0  0
    6.3037   -6.8202    0.0000 C   0  0  0  0  0  0  0  0  0  0  0  0
    5.0046   -7.5702    0.0000 C   0  0  0  0  0  0  0  0  0  0  0  0
    3.8899   -6.5665    0.0000 C   0  0  0  0  0  0  0  0  0  0  0  0
    0.7500   -1.2990    0.0000 C   0  0  0  0  0  0  0  0  0  0  0  0
    1.5000    0.0000    0.0000 C   0  0  0  0  0  0  0  0  0  0  0  0
    0.7500    1.2990    0.0000 C   0  0  0  0  0  0  0  0  0  0  0  0
   -0.7500    1.2990    0.0000 C   0  0  0  0  0  0  0  0  0  0  0  0
   -1.5000    0.0000    0.0000 C   0  0  0  0  0  0  0  0  0  0  0  0
   -0.7500   -1.2990    0.0000 C   0  0  0  0  0  0  0  0  0  0  0  0
    2.7990   -1.8481    0.0000 C   0  0  0  0  0  0  0  0  0  0  0  0
    4.0981   -2.5981    0.0000 C   0  0  0  0  0  0  0  0  0  0  0  0
    5.3971   -1.8481    0.0000 C   0  0  0  0  0  0  0  0  0  0  0  0
    5.3971   -0.3481    0.0000 C   0  0  0  0  0  0  0  0  0  0  0  0
    4.0981    0.4019    0.0000 C   0  0  0  0  0  0  0  0  0  0  0  0
    2.7990   -0.3481    0.0000 C   0  0  0  0  0  0  0  0  0  0  0  0
  1  2  1  0
  2  3  1  0
  3  4  1  0
  4  5  1  0
  5  6  1  0
  6  7  1  0
  7  8  1  0
  8  9  1  0
  2 10  1  0
 10 11  1  0
 11 12  1  0
 12 13  1  0
 13 14  1  0
 14 15  1  0
  2 16  1  0
 16 17  2  0
 17 18  1  0
 18 19  2  0
 19 20  1  0
 20 21  2  0
  9  5  1  0
 15 10  1  0
 21 16  1  0
M  END
$$$$
151063
     RDKit          2D

 23 26  0  0  0  0  0  0  0  0999 V2000
    2.1527   -2.8452    0.0000 O   0  0  0  0  0  0  0  0  0  0  0  0
    3.0344   -1.6317    0.0000 C   0  0  0  0  0  0  0  0  0  0  0  0
    4.2479   -2.5134    0.0000 C   0  0  0  0  0  0  0  0  0  0  0  0
    5.6183   -1.9033    0.0000 C   0  0  0  0  0  0  0  0  0  0  0  0
    6.8318   -2.7849    0.0000 N   0  0  0  0  0  0  0  0  0  0  0  0
    6.6750   -4.2767    0.0000 C   0  0  0  0  0  0  0  0  0  0  0  0
    7.8885   -5.1584    0.0000 C   0  0  0  0  0  0  0  0  0  0  0  0
    9.2588   -4.5483    0.0000 C   0  0  0  0  0  0  0  0  0  0  0  0
    9.4156   -3.0565    0.0000 C   0  0  0  0  0  0  0  0  0  0  0  0
    8.2021   -2.1748    0.0000 C   0  0  0  0  0  0  0  0  0  0  0  0
    1.8209   -0.7500    0.0000 C   0  0  0  0  0  0  0  0  0  0  0  0
    1.8209    0.7500    0.0000 C   0  0  0  0  0  0  0  0  0  0  0  0
    0.3943    1.2135    0.0000 C   0  0  0  0  0  0  0  0  0  0  0  0
    1.2760    0.0000    0.0000 C   0  0  0  0  0  0  0  0  0  0  0  0
    0.3943   -1.2135    0.0000 C   0  0  0  0  0  0  0  0  0  0  0  0
   -1.0323   -0.7500    0.0000 C   0  0  0  0  0  0  0  0  0  0  0  0
   -1.0323    0.7500    0.0000 C   0  0  0  0  0  0  0  0  0  0  0  0
    3.9161   -0.4182    0.0000 C   0  0  0  0  0  0  0  0  0  0  0  0
    5.4079   -0.5749    0.0000 C   0  0  0  0  0  0  0  0  0  0  0  0
    6.2895    0.6386    0.0000 C   0  0  0  0  0  0  0  0  0  0  0  0
    5.6794    2.0089    0.0000 C   0  0  0  0  0  0  0  0  0  0  0  0
    4.1877    2.1657    0.0000 C   0  0  0  0  0  0  0  0  0  0  0  0
    3.3060    0.9522    0.0000 C   0  0  0  0  0  0  0  0  0  0  0  0
  1  2  1  0
  2  3  1  0
  3  4  1  0
  4  5  1  0
  5  6  1  0
  6  7  1  0
  7  8  1  0
  8  9  1  0
  9 10  1  0
  2 11  1  0
 11 12  1  0
 12 13  1  0
 13 14  1  0
 14 15  1  0
 15 16  1  0
 16 17  2  0
  2 18  1  0
 18 19  2  0
 19 20  1  0
 20 21  2  0
 21 22  1  0
 22 23  2  0
 10  5  1  0
 15 11  1  0
 17 13  1  0
 23 18  1  0
M  END
$$$$
675178
     RDKit          2D

 21 23  0  0  0  0  0  0  0  0999 V2000
    2.7990   -4.4462    0.0000 O   0  0  0  0  0  0  0  0  0  0  0  0
    1.5000   -5.1962    0.0000 C   0  0  0  0  0  0  0  0  0  0  0  0
    0.7500   -3.8971    0.0000 C   0  0  0  0  0  0  0  0  0  0  0  0
    1.5000   -2.5981    0.0000 C   0  0  0  0  0  0  0  0  0  0  0  0
    0.7500   -1.2990    0.0000 N   0  0  0  0  0  0  0  0  0  0  0  0
    1.5000    0.0000    0.0000 C   0  0  0  0  0  0  0  0  0  0  0  0
    0.7500    1.2990    0.0000 C   0  0  0  0  0  0  0  0  0  0  0  0
   -0.7500    1.2990    0.0000 C   0  0  0  0  0  0  0  0  0  0  0  0
   -1.5000    0.0000    0.0000 C   0  0  0  0  0  0  0  0  0  0  0  0
   -0.7500   -1.2990    0.0000 C   0  0  0  0  0  0  0  0  0  0  0  0
    2.2500   -6.4952    0.0000 C   0  0  0  0  0  0  0  0  0  0  0  0
    3.7418   -6.6520    0.0000 C   0  0  0  0  0  0  0  0  0  0  0  0
    4.0537   -8.1192    0.0000 C   0  0  0  0  0  0  0  0  0  0  0  0
    2.7546   -8.8692    0.0000 C   0  0  0  0  0  0  0  0  0  0  0  0
    1.6399   -7.8655    0.0000 C   0  0  0  0  0  0  0  0  0  0  0  0
    0.2010   -5.9462    0.0000 C   0  0  0  0  0  0  0  0  0  0  0  0
   -1.0981   -5.1962    0.0000 C   0  0  0  0  0  0  0  0  0  0  0  0
   -2.3971   -5.9462    0.0000 C   0  0  0  0  0  0  0  0  0  0  0  0
   -2.3971   -7.4462    0.0000 C   0  0  0  0  0  0  0  0  0  0  0  0
   -1.0981   -8.1962    0.0000 C   0  0  0  0  0  0  0  0  0  0  0  0
    0.2010   -7.4462    0.0000 C   0  0  0  0  0  0  0  0  0  0  0  0
  1  2  1  0
  2  3  1  0
  3  4  1  0
  4  5  1  0
  5  6  1  0
  6  7  1  0
  7  8  1  0
  8  9  1  0
  9 10  1  0
  2 11  1  0
 11 12  1  0
 12 13  1  0
 13 14  1  0
 14 15  1  0
  2 16  1  0
 16 17  2  0
 17 18  1  0
 18 19  2  0
 19 20  1  0
 20 21  2  0
 10  5  1  0
 15 11  1  0
 21 16  1  0
M  END
$$$$
418411
     RDKit          2D

 22 24  0  0  0  0  0  0  0  0999 V2000
    2.7990   -4.4462    0.0000 O   0  0  0  0  0  0  0  0  0  0  0  0
    1.5000   -5.1962    0.0000 C   0  0  0  0  0  0  0  0  0  0  0  0
    0.7500   -3.8971    0.0000 C   0  0  0  0  0  0  0  0  0  0  0  0
    1.5000   -2.5981    0.0000 C   0  0  0  0  0  0  0  0  0  0  0  0
    0.7500   -1.2990    0.0000 N   0  0  0  0  0  0  0  0  0  0  0  0
    1.5000    0.0000    0.0000 C   0  0  0  0  0  0  0  0  0  0  0  0
    0.7500    1.2990    0.0000 C   0  0  0  0  0  0  0  0  0  0  0  0
   -0.7500    1.2990    0.0000 C   0  0  0  0  0  0  0  0  0  0  0  0
   -1.5000    0.0000    0.0000 C   0  0  0  0  0  0  0  0  0  0  0  0
   -0.7500   -1.2990    0.0000 C   0  0  0  0  0  0  0  0  0  0  0  0
    2.2500   -6.4952    0.0000 C   0  0  0  0  0  0  0  0  0  0  0  0
    1.5000   -7.7942    0.0000 C   0  0  0  0  0  0  0  0  0  0  0  0
    2.2500   -9.0933    0.0000 C   0  0  0  0  0  0  0  0  0  0  0  0
    3.7500   -9.0933    0.0000 C   0  0  0  0  0  0  0  0  0  0  0  0
    4.5000   -7.7942    0.0000 C   0  0  0  0  0  0  0  0  0  0  0  0
    3.7500   -6.4952    0.0000 C   0  0  0  0  0  0  0  0  0  0  0  0
    0.2010   -5.9462    0.0000 C   0  0  0  0  0  0  0  0  0  0  0  0
   -1.0981   -5.1962    0.0000 C   0  0  0  0  0  0  0  0  0  0  0  0
   -2.3971   -5.9462    0.0000 C   0  0  0  0  0  0  0  0  0  0  0  0
   -2.3971   -7.4462    0.0000 C   0  0  0  0  0  0  0  0  0  0  0  0
   -1.0981   -8.1962    0.0000 C   0  0  0  0  0  0  0  0  0  0  0  0
    0.2010   -7.4462    0.0000 C   0  0  0  0  0  0  0  0  0  0  0  0
  1  2  1  0
  2  3  1  0
  3  4  1  0
  4  5  1  0
  5  6  1  0
  6  7  1  0
  7  8  1  0
  8  9  1  0
  9 10  1  0
  2 11  1  0
 11 12  1  0
 12 13  1  0
 13 14  1  0
 14 15  1  0
 15 16  1  0
  2 17  1  0
 17 18  2  0
 18 19  1  0
 19 20  2  0
 20 21  1  0
 21 22  2  0
 10  5  1  0
 16 11  1  0
 22 17  1  0
M  END
$$$$
13758
     RDKit          2D

 22 24  0  0  0  0  0  0  0  0999 V2000
    2.7990   -1.8481    0.0000 O   0  0  0  0  0  0  0  0  0  0  0  0
    1.5000   -2.5981    0.0000 C   0  0  0  0  0  0  0  0  0  0  0  0
    2.2500   -3.8971    0.0000 C   0  0  0  0  0  0  0  0  0  0  0  0
    3.7500   -3.8971    0.0000 N   0  0  0  0  0  0  0  0  0  0  0  0
    4.6317   -2.6836    0.0000 C   0  0  0  0  0  0  0  0  0  0  0  0
    6.0583   -3.1471    0.0000 N   0  0  0  0  0  0  0  0  0  0  0  0
    6.0583   -4.6471    0.0000 C   0  0  0  0  0  0  0  0  0  0  0  0
    4.6317   -5.1106    0.0000 N   0  0  0  0  0  0  0  0  0  0  0  0
    0.2010   -3.3481    0.0000 C   0  0  0  0  0  0  0  0  0  0  0  0
    0.2010   -4.8481    0.0000 N   0  0  0  0  0  0  0  0  0  0  0  0
    1.4145   -5.7298    0.0000 C   0  0  0  0  0  0  0  0  0  0  0  0
    0.9510   -7.1563    0.0000 N   0  0  0  0  0  0  0  0  0  0  0  0
   -0.5490   -7.1563    0.0000 C   0  0  0  0  0  0  0  0  0  0  0  0
   -1.0126   -5.7298    0.0000 N   0  0  0  0  0  0  0  0  0  0  0  0
    0.7500   -1.2990    0.0000 C   0  0  0  0  0  0  0  0  0  0  0  0
    1.5000    0.0000    0.0000 C   0  0  0  0  0  0  0  0  0  0  0  0
    0.7500    1.2990    0.0000 C   0  0  0  0  0  0  0  0  0  0  0  0
   -0.7500    1.2990    0.0000 C   0  0  0  0  0  0  0  0  0  0  0  0
   -1.5000    2.5981    0.0000 F   0  0  0  0  0  0  0  0  0  0  0  0
   -1.5000    0.0000    0.0000 C   0  0  0  0  0  0  0  0  0  0  0  0
   -0.7500   -1.2990    0.0000 C   0  0  0  0  0  0  0  0  0  0  0  0
   -1.5000   -2.5981    0.0000 F   0  0  0  0  0  0  0  0  0  0  0  0
  1  2  1  0
  2  3  1  0
  3  4  1  0
  4  5  1  0
  5  6  2  0
  6  7  1  0
  7  8  2  0
  2  9  1  0
  9 10  1  0
 10 11  1  0
 11 12  2  0
 12 13  1  0
 13 14  2  0
  2 15  1  0
 15 16  2  0
 16 17  1  0
 17 18  2  0
 18 19  1  0
 18 20  1  0
 20 21  2  0
 21 22  1  0
  8  4  1  0
 14 10  1  0
 21 15  1  0
M  END
$$$$
27569
     RDKit          2D

 29 32  0  0  0  0  0  0  0  0999 V2000
    3.0000   -7.7942    0.0000 O   0  0  0  0  0  0  0  0  0  0  0  0
    1.5000   -7.7942    0.0000 C   0  0  0  0  0  0  0  0  0  0  0  0
    0.7500   -6.4952    0.0000 C   0  0  0  0  0  0  0  0  0  0  0  0
    1.5000   -5.1962    0.0000 N   0  0  0  0  0  0  0  0  0  0  0  0
    0.7500   -3.8971    0.0000 C   0  0  0  0  0  0  0  0  0  0  0  0
    1.5000   -2.5981    0.0000 C   0  0  0  0  0  0  0  0  0  0  0  0
    3.0000   -2.5981    0.0000 O   0  0  0  0  0  0  0  0  0  0  0  0
    0.7500   -1.2990    0.0000 C   0  0  0  0  0  0  0  0  0  0  0  0
    1.5000    0.0000    0.0000 C   0  0  0  0  0  0  0  0  0  0  0  0
    0.7500    1.2990    0.0000 C   0  0  0  0  0  0  0  0  0  0  0  0
   -0.7500    1.2990    0.0000 C   0  0  0  0  0  0  0  0  0  0  0  0
   -1.5000    2.5981    0.0000 C   0  0  0  0  0  0  0  0  0  0  0  0
   -3.0000    2.5981    0.0000 C   0  0  0  0  0  0  0  0  0  0  0  0
   -3.7500    3.8971    0.0000 F   0  0  0  0  0  0  0  0  0  0  0  0
   -3.7500    1.2990    0.0000 C   0  0  0  0  0  0  0  0  0  0  0  0
   -3.0000    0.0000    0.0000 C   0  0  0  0  0  0  0  0  0  0  0  0
   -1.5000    0.0000    0.0000 C   0  0  0  0  0  0  0  0  0  0  0  0
   -0.7500   -1.2990    0.0000 O   0  0  0  0  0  0  0  0  0  0  0  0
    0.7500   -9.0933    0.0000 C   0  0  0  0  0  0  0  0  0  0  0  0
   -0.7500   -9.0933    0.0000 C   0  0  0  0  0  0  0  0  0  0  0  0
   -1.5000  -10.3923    0.0000 C   0  0  0  0  0  0  0  0  0  0  0  0
   -0.7500  -11.6913    0.0000 C   0  0  0  0  0  0  0  0  0  0  0  0
   -1.5000  -12.9904    0.0000 C   0  0  0  0  0  0  0  0  0  0  0  0
   -0.7500  -14.2894    0.0000 C   0  0  0  0  0  0  0  0  0  0  0  0
   -1.5000  -15.5885    0.0000 F   0  0  0  0  0  0  0  0  0  0  0  0
    0.7500  -14.2894    0.0000 C   0  0  0  0  0  0  0  0  0  0  0  0
    1.5000  -12.9904    0.0000 C   0  0  0  0  0  0  0  0  0  0  0  0
    0.7500  -11.6913    0.0000 C   0  0  0  0  0  0  0  0  0  0  0  0
    1.5000  -10.3923    0.0000 O   0  0  0  0  0  0  0  0  0  0  0  0
  1  2  1  0
  2  3  1  0
  3  4  1  0
  4  5  1  0
  5  6  1  0
  6  7  1  0
  6  8  1  0
  8  9  1  0
  9 10  1  0
 10 11  1  0
 11 12  2  0
 12 13  1  0
 13 14  1  0
 13 15  2  0
 15 16  1  0
 16 17  2  0
 17 18  1  0
  2 19  1  0
 19 20  1  0
 20 21  1  0
 21 22  1  0
 22 23  2  0
 23 24  1  0
 24 25  1  0
 24 26  2  0
 26 27  1  0
 27 28  2  0
 28 29  1  0
 18  8  1  0
 17 11  1  0
 29 19  1  0
 28 22  1  0
M  END
$$$$
7725
     RDKit          2D

 34 37  0  0  0  0  0  0  0  0999 V2000
    3.0000   -5.1962    0.0000 O   0  0  0  0  0  0  0  0  0  0  0  0
    3.7500   -3.8971    0.0000 C   0  0  0  0  0  0  0  0  0  0  0  0
    3.0000   -2.5981    0.0000 C   0  0  0  0  0  0  0  0  0  0  0  0
    1.5000   -2.5981    0.0000 O   0  0  0  0  0  0  0  0  0  0  0  0
    0.7500   -1.2990    0.0000 C   0  0  0  0  0  0  0  0  0  0  0  0
    1.5000    0.0000    0.0000 C   0  0  0  0  0  0  0  0  0  0  0  0
    0.7500    1.2990    0.0000 C   0  0  0  0  0  0  0  0  0  0  0  0
   -0.7500    1.2990    0.0000 C   0  0  0  0  0  0  0  0  0  0  0  0
   -1.5000    0.0000    0.0000 C   0  0  0  0  0  0  0  0  0  0  0  0
   -3.0000    0.0000    0.0000 O   0  0  0  0  0  0  0  0  0  0  0  0
   -3.7500   -1.2990    0.0000 C   0  0  0  0  0  0  0  0  0  0  0  0
   -3.0000   -2.5981    0.0000 C   0  0  0  0  0  0  0  0  0  0  0  0
   -1.5000   -2.5981    0.0000 C   0  0  0  0  0  0  0  0  0  0  0  0
   -0.7500   -3.8971    0.0000 O   0  0  0  0  0  0  0  0  0  0  0  0
   -0.7500   -1.2990    0.0000 C   0  0  0  0  0  0  0  0  0  0  0  0
   -5.2500   -1.2990    0.0000 C   0  0  0  0  0  0  0  0  0  0  0  0
   -6.0000   -2.5981    0.0000 O   0  0  0  0  0  0  0  0  0  0  0  0
   -6.0000    0.0000    0.0000 O   0  0  0  0  0  0  0  0  0  0  0  0
    5.2500   -3.8971    0.0000 C   0  0  0  0  0  0  0  0  0  0  0  0
    6.0000   -5.1962    0.0000 O   0  0  0  0  0  0  0  0  0  0  0  0
    7.5000   -5.1962    0.0000 C   0  0  0  0  0  0  0  0  0  0  0  0
    8.2500   -3.8971    0.0000 C   0  0  0  0  0  0  0  0  0  0  0  0
    9.7500   -3.8971    0.0000 C   0  0  0  0  0  0  0  0  0  0  0  0
   10.5000   -5.1962    0.0000 C   0  0  0  0  0  0  0  0  0  0  0  0
    9.7500   -6.4952    0.0000 C   0  0  0  0  0  0  0  0  0  0  0  0
   10.5000   -7.7942    0.0000 O   0  0  0  0  0  0  0  0  0  0  0  0
    9.7500   -9.0933    0.0000 C   0  0  0  0  0  0  0  0  0  0  0  0
    8.2500   -9.0933    0.0000 C   0  0  0  0  0  0  0  0  0  0  0  0
    7.5000   -7.7942    0.0000 C   0  0  0  0  0  0  0  0  0  0  0  0
    6.0000   -7.7942    0.0000 O   0  0  0  0  0  0  0  0  0  0  0  0
    8.2500   -6.4952    0.0000 C   0  0  0  0  0  0  0  0  0  0  0  0
   10.5000  -10.3923    0.0000 C   0  0  0  0  0  0  0  0  0  0  0  0
   12.0000  -10.3923    0.0000 O   0  0  0  0  0  0  0  0  0  0  0  0
    9.7500  -11.6913    0.0000 O   0  0  0  0  0  0  0  0  0  0  0  0
  1  2  1  0
  2  3  1  0
  3  4  1  0
  4  5  1  0
  5  6  2  0
  6  7  1  0
  7  8  2  0
  8  9  1  0
  9 10  1  0
 10 11  1  0
 11 12  2  0
 12 13  1  0
 13 14  2  0
 13 15  1  0
 11 16  1  0
 16 17  2  0
 16 18  1  0
  2 19  1  0
 19 20  1  0
 20 21  1  0
 21 22  2  0
 22 23  1  0
 23 24  2  0
 24 25  1  0
 25 26  1  0
 26 27  1  0
 27 28  2  0
 28 29  1  0
 29 30  2  0
 29 31  1  0
 27 32  1  0
 32 33  2  0
 32 34  1  0
 15  5  1  0
 15  9  2  0
 31 21  1  0
 31 25  2  0
M  END
$$$$
3859
     RDKit          2D

 26 28  0  0  0  0  0  0  0  0999 V2000
    0.4895   -2.7762    0.0000 O   0  0  0  0  0  0  0  0  0  0  0  0
    0.7500   -1.2990    0.0000 C   0  0  0  0  0  0  0  0  0  0  0  0
    1.5000    0.0000    0.0000 C   0  0  0  0  0  0  0  0  0  0  0  0
    0.7500    1.2990    0.0000 C   0  0  0  0  0  0  0  0  0  0  0  0
   -0.7500    1.2990    0.0000 N   0  0  0  0  0  0  0  0  0  0  0  0
   -1.5000    2.5981    0.0000 C   0  0  0  0  0  0  0  0  0  0  0  0
   -0.7500    3.8971    0.0000 C   0  0  0  0  0  0  0  0  0  0  0  0
   -1.5000    5.1962    0.0000 C   0  0  0  0  0  0  0  0  0  0  0  0
   -0.7500    6.4952    0.0000 C   0  0  0  0  0  0  0  0  0  0  0  0
    0.7500    6.4952    0.0000 O   0  0  0  0  0  0  0  0  0  0  0  0
   -1.5000    7.7942    0.0000 C   0  0  0  0  0  0  0  0  0  0  0  0
   -0.7500    9.0933    0.0000 C   0  0  0  0  0  0  0  0  0  0  0  0
   -1.5000   10.3923    0.0000 C   0  0  0  0  0  0  0  0  0  0  0  0
   -3.0000   10.3923    0.0000 C   0  0  0  0  0  0  0  0  0  0  0  0
   -3.7500   11.6913    0.0000 F   0  0  0  0  0  0  0  0  0  0  0  0
   -3.7500    9.0933    0.0000 C   0  0  0  0  0  0  0  0  0  0  0  0
   -3.0000    7.7942    0.0000 C   0  0  0  0  0  0  0  0  0  0  0  0
   -1.5000    0.0000    0.0000 C   0  0  0  0  0  0  0  0  0  0  0  0
   -0.7500   -1.2990    0.0000 C   0  0  0  0  0  0  0  0  0  0  0  0
    2.1595   -1.8121    0.0000 C   0  0  0  0  0  0  0  0  0  0  0  0
    2.4200   -3.2893    0.0000 C   0  0  0  0  0  0  0  0  0  0  0  0
    3.8296   -3.8023    0.0000 C   0  0  0  0  0  0  0  0  0  0  0  0
    4.9786   -2.8381    0.0000 C   0  0  0  0  0  0  0  0  0  0  0  0
    6.3882   -3.3512    0.0000 Cl  0  0  0  0  0  0  0  0  0  0  0  0
    4.7181   -1.3609    0.0000 C   0  0  0  0  0  0  0  0  0  0  0  0
    3.3086   -0.8479    0.0000 C   0  0  0  0  0  0  0  0  0  0  0  0
  1  2  1  0
  2  3  1  0
  3  4  1  0
  4  5  1  0
  5  6  1  0
  6  7  1  0
  7  8  1  0
  8  9  1  0
  9 10  2  0
  9 11  1  0
 11 12  2  0
 12 13  1  0
 13 14  2  0
 14 15  1  0
 14 16  1  0
 16 17  2  0
  5 18  1  0
 18 19  1  0
  2 20  1  0
 20 21  2  0
 21 22  1  0
 22 23  2  0
 23 24  1  0
 23 25  1  0
 25 26  2  0
 19  2  1  0
 17 11  1  0
 26 20  1  0
M  END
$$$$
1420377
     RDKit          2D

 30 33  0  0  0  0  0  0  0  0999 V2000
   -1.7595   -6.1225    0.0000 O   0  0  0  0  0  0  0  0  0  0  0  0
   -0.3107   -5.7342    0.0000 C   0  0  0  0  0  0  0  0  0  0  0  0
    1.1382   -5.3460    0.0000 C   0  0  0  0  0  0  0  0  0  0  0  0
    0.7500   -3.8971    0.0000 N   0  0  0  0  0  0  0  0  0  0  0  0
   -0.6989   -4.2853    0.0000 C   0  0  0  0  0  0  0  0  0  0  0  0
    1.5000   -2.5981    0.0000 C   0  0  0  0  0  0  0  0  0  0  0  0
    3.0000   -2.5981    0.0000 O   0  0  0  0  0  0  0  0  0  0  0  0
    0.7500   -1.2990    0.0000 C   0  0  0  0  0  0  0  0  0  0  0  0
    1.5000    0.0000    0.0000 C   0  0  0  0  0  0  0  0  0  0  0  0
    0.7500    1.2990    0.0000 C   0  0  0  0  0  0  0  0  0  0  0  0
   -0.7500    1.2990    0.0000 C   0  0  0  0  0  0  0  0  0  0  0  0
   -1.5000    2.5981    0.0000 F   0  0  0  0  0  0  0  0  0  0  0  0
   -1.5000    0.0000    0.0000 C   0  0  0  0  0  0  0  0  0  0  0  0
   -3.0000    0.0000    0.0000 F   0  0  0  0  0  0  0  0  0  0  0  0
   -0.7500   -1.2990    0.0000 C   0  0  0  0  0  0  0  0  0  0  0  0
   -1.5000   -2.5981    0.0000 N   0  0  0  0  0  0  0  0  0  0  0  0
   -3.0000   -2.5981    0.0000 C   0  0  0  0  0  0  0  0  0  0  0  0
   -3.7500   -1.2990    0.0000 C   0  0  0  0  0  0  0  0  0  0  0  0
   -5.2500   -1.2990    0.0000 C   0  0  0  0  0  0  0  0  0  0  0  0
   -6.0000   -2.5981    0.0000 C   0  0  0  0  0  0  0  0  0  0  0  0
   -7.5000   -2.5981    0.0000 I   0  0  0  0  0  0  0  0  0  0  0  0
   -5.2500   -3.8971    0.0000 C   0  0  0  0  0  0  0  0  0  0  0  0
   -3.7500   -3.8971    0.0000 C   0  0  0  0  0  0  0  0  0  0  0  0
   -3.0000   -5.1962    0.0000 F   0  0  0  0  0  0  0  0  0  0  0  0
    0.0776   -7.1831    0.0000 C   0  0  0  0  0  0  0  0  0  0  0  0
   -0.9831   -8.2438    0.0000 C   0  0  0  0  0  0  0  0  0  0  0  0
   -0.5949   -9.6927    0.0000 C   0  0  0  0  0  0  0  0  0  0  0  0
    0.8540  -10.0809    0.0000 C   0  0  0  0  0  0  0  0  0  0  0  0
    1.9147   -9.0202    0.0000 C   0  0  0  0  0  0  0  0  0  0  0  0
    1.5265   -7.5713    0.0000 N   0  0  0  0  0  0  0  0  0  0  0  0
  1  2  1  0
  2  3  1  0
  3  4  1  0
  4  5  1  0
  4  6  1  0
  6  7  2  0
  6  8  1  0
  8  9  2  0
  9 10  1  0
 10 11  2  0
 11 12  1  0
 11 13  1  0
 13 14  1  0
 13 15  2  0
 15 16  1  0
 16 17  1  0
 17 18  2  0
 18 19  1  0
 19 20  2  0
 20 21  1  0
 20 22  1  0
 22 23  2  0
 23 24  1  0
 25  2  1  1
 25 26  1  0
 26 27  1  0
 27 28  1  0
 28 29  1  0
 29 30  1  0
  5  2  1  0
 15  8  1  0
 23 17  1  0
 30 25  1  0
M  END
$$$$
46385
     RDKit          2D

 20 23  0  0  0  0  0  0  0  0999 V2000
   -2.5838   -2.1155    0.0000 O   0  0  0  0  0  0  0  0  0  0  0  0
   -1.2135   -2.7256    0.0000 C   0  0  0  0  0  0  0  0  0  0  0  0
   -0.0000   -3.6073    0.0000 N   0  0  0  0  0  0  0  0  0  0  0  0
    0.4635   -5.0339    0.0000 C   0  0  0  0  0  0  0  0  0  0  0  0
    1.9635   -5.0339    0.0000 C   0  0  0  0  0  0  0  0  0  0  0  0
    2.4271   -3.6073    0.0000 N   0  0  0  0  0  0  0  0  0  0  0  0
    1.2135   -2.7256    0.0000 C   0  0  0  0  0  0  0  0  0  0  0  0
    0.7500   -1.2990    0.0000 C   0  0  0  0  0  0  0  0  0  0  0  0
    1.5000    0.0000    0.0000 C   0  0  0  0  0  0  0  0  0  0  0  0
    0.7500    1.2990    0.0000 C   0  0  0  0  0  0  0  0  0  0  0  0
   -0.7500    1.2990    0.0000 C   0  0  0  0  0  0  0  0  0  0  0  0
   -1.5000    0.0000    0.0000 C   0  0  0  0  0  0  0  0  0  0  0  0
   -0.7500   -1.2990    0.0000 C   0  0  0  0  0  0  0  0  0  0  0  0
   -1.9635   -4.0247    0.0000 C   0  0  0  0  0  0  0  0  0  0  0  0
   -3.4635   -4.0247    0.0000 C   0  0  0  0  0  0  0  0  0  0  0  0
   -4.2135   -5.3237    0.0000 C   0  0  0  0  0  0  0  0  0  0  0  0
   -3.4635   -6.6227    0.0000 C   0  0  0  0  0  0  0  0  0  0  0  0
   -4.2135   -7.9218    0.0000 Cl  0  0  0  0  0  0  0  0  0  0  0  0
   -1.9635   -6.6227    0.0000 C   0  0  0  0  0  0  0  0  0  0  0  0
   -1.2135   -5.3237    0.0000 C   0  0  0  0  0  0  0  0  0  0  0  0
  1  2  1  0
  2  3  1  0
  3  4  1  0
  4  5  1  0
  5  6  1  0
  6  7  2  0
  7  8  1  0
  8  9  2  0
  9 10  1  0
 10 11  2  0
 11 12  1  0
 12 13  2  0
  2 14  1  0
 14 15  2  0
 15 16  1  0
 16 17  2  0
 17 18  1  0
 17 19  1  0
 19 20  2  0
 13  2  1  0
  7  3  1  0
 13  8  1  0
 20 14  1  0
M  END
$$$$
394231
     RDKit          2D

 25 28  0  0  0  0  0  0  0  0999 V2000
    1.5000   -5.1962    0.0000 O   0  0  0  0  0  0  0  0  0  0  0  0
    0.7500   -3.8971    0.0000 C   0  0  0  0  0  0  0  0  0  0  0  0
   -0.7500   -3.8971    0.0000 C   0  0  0  0  0  0  0  0  0  0  0  0
   -1.5000   -5.1962    0.0000 C   0  0  0  0  0  0  0  0  0  0  0  0
   -3.0000   -5.1962    0.0000 C   0  0  0  0  0  0  0  0  0  0  0  0
   -3.7500   -6.4952    0.0000 C   0  0  0  0  0  0  0  0  0  0  0  0
   -3.0000   -7.7942    0.0000 O   0  0  0  0  0  0  0  0  0  0  0  0
   -5.2500   -6.4952    0.0000 C   0  0  0  0  0  0  0  0  0  0  0  0
   -6.0000   -7.7942    0.0000 C   0  0  0  0  0  0  0  0  0  0  0  0
   -7.5000   -7.7942    0.0000 C   0  0  0  0  0  0  0  0  0  0  0  0
   -8.2500   -6.4952    0.0000 C   0  0  0  0  0  0  0  0  0  0  0  0
   -7.5000   -5.1962    0.0000 C   0  0  0  0  0  0  0  0  0  0  0  0
   -6.0000   -5.1962    0.0000 C   0  0  0  0  0  0  0  0  0  0  0  0
   -5.2500   -3.8971    0.0000 O   0  0  0  0  0  0  0  0  0  0  0  0
   -3.7500   -3.8971    0.0000 C   0  0  0  0  0  0  0  0  0  0  0  0
   -3.3655   -2.9912    0.0000 O   0  0  0  0  0  0  0  0  0  0  0  0
   -1.5000   -2.5981    0.0000 C   0  0  0  0  0  0  0  0  0  0  0  0
   -2.4768   -2.4781    0.0000 O   0  0  0  0  0  0  0  0  0  0  0  0
   -0.7500   -1.2990    0.0000 O   0  0  0  0  0  0  0  0  0  0  0  0
    0.7500   -1.2990    0.0000 C   0  0  0  0  0  0  0  0  0  0  0  0
    1.5000    0.0000    0.0000 C   0  0  0  0  0  0  0  0  0  0  0  0
    3.0000   -0.0000    0.0000 C   0  0  0  0  0  0  0  0  0  0  0  0
    3.7500   -1.2990    0.0000 C   0  0  0  0  0  0  0  0  0  0  0  0
    3.0000   -2.5981    0.0000 C   0  0  0  0  0  0  0  0  0  0  0  0
    1.5000   -2.5981    0.0000 C   0  0  0  0  0  0  0  0  0  0  0  0
  1  2  1  0
  2  3  2  0
  3  4  1  0
  4  5  1  0
  5  6  2  0
  6  7  1  0
  6  8  1  0
  8  9  2  0
  9 10  1  0
 10 11  2  0
 11 12  1  0
 12 13  2  0
 13 14  1  0
 14 15  1  0
 15 16  2  0
  3 17  1  0
 17 18  2  0
 17 19  1  0
 19 20  1  0
 20 21  2  0
 21 22  1  0
 22 23  2  0
 23 24  1  0
 24 25  2  0
 25  2  1  0
 15  5  1  0
 13  8  1  0
 25 20  1  0
M  END
$$$$
378315
     RDKit          2D

 26 29  0  0  0  0  0  0  0  0999 V2000
   -1.5000   -5.1962    0.0000 O   0  0  0  0  0  0  0  0  0  0  0  0
   -0.7500   -3.8971    0.0000 C   0  0  0  0  0  0  0  0  0  0  0  0
    0.7500   -3.8971    0.0000 C   0  0  0  0  0  0  0  0  0  0  0  0
    1.5000   -5.1962    0.0000 C   0  0  0  0  0  0  0  0  0  0  0  0
    0.7500   -6.4952    0.0000 C   0  0  0  0  0  0  0  0  0  0  0  0
    1.5000   -7.7942    0.0000 C   0  0  0  0  0  0  0  0  0  0  0  0
    3.0000   -7.7942    0.0000 C   0  0  0  0  0  0  0  0  0  0  0  0
    3.7500   -6.4952    0.0000 C   0  0  0  0  0  0  0  0  0  0  0  0
    3.0000   -5.1962    0.0000 C   0  0  0  0  0  0  0  0  0  0  0  0
    3.7500   -9.0933    0.0000 C   0  0  0  0  0  0  0  0  0  0  0  0
    3.0000  -10.3923    0.0000 C   0  0  0  0  0  0  0  0  0  0  0  0
    3.7500  -11.6913    0.0000 C   0  0  0  0  0  0  0  0  0  0  0  0
    5.2500  -11.6913    0.0000 C   0  0  0  0  0  0  0  0  0  0  0  0
    6.0000  -12.9904    0.0000 Cl  0  0  0  0  0  0  0  0  0  0  0  0
    6.0000  -10.3923    0.0000 C   0  0  0  0  0  0  0  0  0  0  0  0
    5.2500   -9.0933    0.0000 C   0  0  0  0  0  0  0  0  0  0  0  0
    1.5000   -2.5981    0.0000 C   0  0  0  0  0  0  0  0  0  0  0  0
    3.0000   -2.5981    0.0000 O   0  0  0  0  0  0  0  0  0  0  0  0
    0.7500   -1.2990    0.0000 C   0  0  0  0  0  0  0  0  0  0  0  0
    1.5000    0.0000    0.0000 C   0  0  0  0  0  0  0  0  0  0  0  0
    0.7500    1.2990    0.0000 C   0  0  0  0  0  0  0  0  0  0  0  0
   -0.7500    1.2990    0.0000 C   0  0  0  0  0  0  0  0  0  0  0  0
   -1.5000    0.0000    0.0000 C   0  0  0  0  0  0  0  0  0  0  0  0
   -0.7500   -1.2990    0.0000 C   0  0  0  0  0  0  0  0  0  0  0  0
   -1.5000   -2.5981    0.0000 C   0  0  0  0  0  0  0  0  0  0  0  0
   -3.0000   -2.5981    0.0000 O   0  0  0  0  0  0  0  0  0  0  0  0
  1  2  1  0
  2  3  2  0
  4  3  1  1
  4  5  1  0
  5  6  1  0
  6  7  1  0
  7  8  1  0
  8  9  1  0
  7 10  1  6
 10 11  2  0
 11 12  1  0
 12 13  2  0
 13 14  1  0
 13 15  1  0
 15 16  2  0
  3 17  1  0
 17 18  2  0
 17 19  1  0
 19 20  2  0
 20 21  1  0
 21 22  2  0
 22 23  1  0
 23 24  2  0
 24 25  1  0
 25 26  2  0
 25  2  1  0
  9  4  1  0
 16 10  1  0
 24 19  1  0
M  END
$$$$
921
     RDKit          2D

 19 21  0  0  0  0  0  0  0  0999 V2000
   -0.8282   -5.7037    0.0000 O   0  0  0  0  0  0  0  0  0  0  0  0
    0.2865   -4.7000    0.0000 C   0  0  0  0  0  0  0  0  0  0  0  0
    1.7537   -5.0118    0.0000 N   0  0  0  0  0  0  0  0  0  0  0  0
    2.5037   -3.7128    0.0000 C   0  0  0  0  0  0  0  0  0  0  0  0
    3.9955   -3.5560    0.0000 O   0  0  0  0  0  0  0  0  0  0  0  0
    1.5000   -2.5981    0.0000 C   0  0  0  0  0  0  0  0  0  0  0  0
    0.1297   -3.2082    0.0000 N   0  0  0  0  0  0  0  0  0  0  0  0
    0.7500   -1.2990    0.0000 C   0  0  0  0  0  0  0  0  0  0  0  0
    1.5000    0.0000    0.0000 C   0  0  0  0  0  0  0  0  0  0  0  0
    0.7500    1.2990    0.0000 C   0  0  0  0  0  0  0  0  0  0  0  0
   -0.7500    1.2990    0.0000 C   0  0  0  0  0  0  0  0  0  0  0  0
   -1.5000    0.0000    0.0000 C   0  0  0  0  0  0  0  0  0  0  0  0
   -0.7500   -1.2990    0.0000 C   0  0  0  0  0  0  0  0  0  0  0  0
    2.7135   -1.7164    0.0000 C   0  0  0  0  0  0  0  0  0  0  0  0
    4.0838   -2.3265    0.0000 C   0  0  0  0  0  0  0  0  0  0  0  0
    5.2974   -1.4448    0.0000 C   0  0  0  0  0  0  0  0  0  0  0  0
    5.1406    0.0470    0.0000 C   0  0  0  0  0  0  0  0  0  0  0  0
    3.7703    0.6571    0.0000 C   0  0  0  0  0  0  0  0  0  0  0  0
    2.5567   -0.2246    0.0000 C   0  0  0  0  0  0  0  0  0  0  0  0
  1  2  1  0
  2  3  2  0
  3  4  1  0
  4  5  2  0
  4  6  1  0
  6  7  1  0
  6  8  1  0
  8  9  2  0
  9 10  1  0
 10 11  2  0
 11 12  1  0
 12 13  2  0
  6 14  1  0
 14 15  2  0
 15 16  1  0
 16 17  2  0
 17 18  1  0
 18 19  2  0
  7  2  1  0
 13  8  1  0
 19 14  1  0
M  END
$$$$
6914
     RDKit          2D

 34 38  0  0  0  0  0  0  0  0999 V2000
    0.0000   -9.6073    0.0000 O   0  0  0  0  0  0  0  0  0  0  0  0
    0.0000   -8.1073    0.0000 C   0  0  0  0  0  0  0  0  0  0  0  0
   -1.2990   -7.3573    0.0000 C   0  0  0  0  0  0  0  0  0  0  0  0
   -1.2990   -5.8573    0.0000 C   0  0  0  0  0  0  0  0  0  0  0  0
   -0.0000   -5.1073    0.0000 C   0  0  0  0  0  0  0  0  0  0  0  0
    1.2990   -5.8573    0.0000 C   0  0  0  0  0  0  0  0  0  0  0  0
    1.2990   -7.3573    0.0000 C   0  0  0  0  0  0  0  0  0  0  0  0
   -0.0000   -3.6073    0.0000 C   0  0  0  0  0  0  0  0  0  0  0  0
    1.2135   -2.7256    0.0000 S   0  0  0  0  0  0  0  0  0  0  0  0
    0.7500   -1.2990    0.0000 C   0  0  0  0  0  0  0  0  0  0  0  0
    1.5000    0.0000    0.0000 C   0  0  0  0  0  0  0  0  0  0  0  0
    0.7500    1.2990    0.0000 C   0  0  0  0  0  0  0  0  0  0  0  0
    1.5000    2.5981    0.0000 O   0  0  0  0  0  0  0  0  0  0  0  0
   -0.7500    1.2990    0.0000 C   0  0  0  0  0  0  0  0  0  0  0  0
   -1.5000    0.0000    0.0000 C   0  0  0  0  0  0  0  0  0  0  0  0
   -0.7500   -1.2990    0.0000 C   0  0  0  0  0  0  0  0  0  0  0  0
   -1.2135   -2.7256    0.0000 C   0  0  0  0  0  0  0  0  0  0  0  0
   -2.6401   -3.1891    0.0000 C   0  0  0  0  0  0  0  0  0  0  0  0
   -2.9520   -4.6564    0.0000 O   0  0  0  0  0  0  0  0  0  0  0  0
   -3.7548   -2.1855    0.0000 C   0  0  0  0  0  0  0  0  0  0  0  0
   -5.1814   -2.6490    0.0000 C   0  0  0  0  0  0  0  0  0  0  0  0
   -6.2961   -1.6453    0.0000 C   0  0  0  0  0  0  0  0  0  0  0  0
   -5.9843   -0.1781    0.0000 C   0  0  0  0  0  0  0  0  0  0  0  0
   -7.0990    0.8256    0.0000 O   0  0  0  0  0  0  0  0  0  0  0  0
   -8.5256    0.3621    0.0000 C   0  0  0  0  0  0  0  0  0  0  0  0
   -9.6403    1.3658    0.0000 C   0  0  0  0  0  0  0  0  0  0  0  0
  -11.0669    0.9023    0.0000 N   0  0  0  0  0  0  0  0  0  0  0  0
  -11.3787   -0.5649    0.0000 C   0  0  0  0  0  0  0  0  0  0  0  0
  -12.8053   -1.0285    0.0000 C   0  0  0  0  0  0  0  0  0  0  0  0
  -13.9200   -0.0248    0.0000 C   0  0  0  0  0  0  0  0  0  0  0  0
  -13.6082    1.4425    0.0000 C   0  0  0  0  0  0  0  0  0  0  0  0
  -12.1816    1.9060    0.0000 C   0  0  0  0  0  0  0  0  0  0  0  0
   -4.5577    0.2855    0.0000 C   0  0  0  0  0  0  0  0  0  0  0  0
   -3.4430   -0.7182    0.0000 C   0  0  0  0  0  0  0  0  0  0  0  0
  1  2  1  0
  2  3  2  0
  3  4  1  0
  4  5  2  0
  5  6  1  0
  6  7  2  0
  5  8  1  0
  8  9  1  0
  9 10  1  0
 10 11  2  0
 11 12  1  0
 12 13  1  0
 12 14  2  0
 14 15  1  0
 15 16  2  0
 16 17  1  0
 17 18  1  0
 18 19  2  0
 18 20  1  0
 20 21  2  0
 21 22  1  0
 22 23  2  0
 23 24  1  0
 24 25  1  0
 25 26  1  0
 26 27  1  0
 27 28  1  0
 28 29  1  0
 29 30  1  0
 30 31  1  0
 31 32  1  0
 23 33  1  0
 33 34  2  0
  7  2  1  0
 17  8  2  0
 16 10  1  0
 34 20  1  0
 32 27  1  0
M  END
$$$$
378218
     RDKit          2D

 21 22  0  0  0  0  0  0  0  0999 V2000
    3.0000    0.0000    0.0000 O   0  0  0  0  0  0  0  0  0  0  0  0
    1.5000    0.0000    0.0000 C   0  0  0  0  0  0  0  0  0  0  0  0
    0.7500   -1.2990    0.0000 C   0  0  0  0  0  0  0  0  0  0  0  0
   -0.7500   -1.2990    0.0000 C   0  0  0  0  0  0  0  0  0  0  0  0
   -1.5000    0.0000    0.0000 C   0  0  0  0  0  0  0  0  0  0  0  0
   -3.0000    0.0000    0.0000 Cl  0  0  0  0  0  0  0  0  0  0  0  0
   -0.7500    1.2990    0.0000 C   0  0  0  0  0  0  0  0  0  0  0  0
    0.7500    1.2990    0.0000 C   0  0  0  0  0  0  0  0  0  0  0  0
    1.5000    2.5981    0.0000 C   0  0  0  0  0  0  0  0  0  0  0  0
    0.7500    3.8971    0.0000 O   0  0  0  0  0  0  0  0  0  0  0  0
    3.0000    2.5981    0.0000 N   0  0  0  0  0  0  0  0  0  0  0  0
    3.7500    3.8971    0.0000 C   0  0  0  0  0  0  0  0  0  0  0  0
    5.2500    3.8971    0.0000 C   0  0  0  0  0  0  0  0  0  0  0  0
    6.0000    5.1962    0.0000 C   0  0  0  0  0  0  0  0  0  0  0  0
    5.2500    6.4952    0.0000 C   0  0  0  0  0  0  0  0  0  0  0  0
    3.7500    6.4952    0.0000 C   0  0  0  0  0  0  0  0  0  0  0  0
    3.0000    5.1962    0.0000 C   0  0  0  0  0  0  0  0  0  0  0  0
    1.5000    5.1962    0.0000 Cl  0  0  0  0  0  0  0  0  0  0  0  0
    6.0000    7.7942    0.0000 N   0  0  0  0  0  4  0  0  0  0  0  0
    5.2500    9.0933    0.0000 O   0  0  0  0  0  0  0  0  0  0  0  0
    7.5000    7.7942    0.0000 O   0  0  0  0  0  1  0  0  0  0  0  0
  1  2  1  0
  2  3  2  0
  3  4  1  0
  4  5  2  0
  5  6  1  0
  5  7  1  0
  7  8  2  0
  8  9  1  0
  9 10  2  0
  9 11  1  0
 11 12  1  0
 12 13  2  0
 13 14  1  0
 14 15  2  0
 15 16  1  0
 16 17  2  0
 17 18  1  0
 15 19  1  0
 19 20  2  0
 19 21  1  0
  8  2  1  0
 17 12  1  0
M  CHG  2  19   1  21  -1
M  END
$$$$
21459
     RDKit          2D

 25 30  0  0  0  0  0  0  0  0999 V2000
    3.0000    0.0000    0.0000 O   0  0  0  0  0  0  0  0  0  0  0  0
    1.5000    0.0000    0.0000 C   0  0  0  0  0  0  0  0  0  0  0  0
    0.7500   -1.2990    0.0000 C   0  0  0  0  0  0  0  0  0  0  0  0
   -0.7500   -1.2990    0.0000 C   0  0  0  0  0  0  0  0  0  0  0  0
   -1.5000    0.0000    0.0000 C   0  0  0  0  0  0  0  0  0  0  0  0
   -3.0000    0.0000    0.0000 C   0  0  0  0  0  0  0  0  0  0  0  0
   -3.7500    1.2990    0.0000 C   0  0  0  0  0  0  0  0  0  0  0  0
   -4.5000    2.5981    0.0000 N   0  0  0  0  0  0  0  0  0  0  0  0
   -6.0000    2.5981    0.0000 C   0  0  0  0  0  0  0  0  0  0  0  0
   -6.7500    1.2990    0.0000 C   0  0  0  0  0  0  0  0  0  0  0  0
   -6.7500   -0.2010    0.0000 C   0  0  0  0  0  0  0  0  0  0  0  0
   -8.0490    0.5490    0.0000 C   0  0  0  0  0  0  0  0  0  0  0  0
   -3.7500    3.8971    0.0000 C   0  0  0  0  0  0  0  0  0  0  0  0
   -2.2500    3.8971    0.0000 C   0  0  0  0  0  0  0  0  0  0  0  0
   -1.5000    2.5981    0.0000 C   0  0  0  0  0  0  0  0  0  0  0  0
   -0.7500    3.8971    0.0000 C   0  0  0  0  0  0  0  0  0  0  0  0
    0.6203    3.2870    0.0000 O   0  0  0  0  0  0  0  0  0  0  0  0
    0.7500    1.2990    0.0000 C   0  0  0  0  0  0  0  0  0  0  0  0
   -0.7500    1.2990    0.0000 C   0  0  0  0  0  0  0  0  0  0  0  0
   -1.8500    4.5899    0.0000 C   0  0  0  0  0  0  0  0  0  0  0  0
   -0.7500    6.4952    0.0000 O   0  0  0  0  0  0  0  0  0  0  0  0
   -2.6500    4.5899    0.0000 C   0  0  0  0  0  0  0  0  0  0  0  0
   -3.0500    3.8971    0.0000 C   0  0  0  0  0  0  0  0  0  0  0  0
   -3.0000    2.5981    0.0000 C   0  0  0  0  0  0  0  0  0  0  0  0
   -3.7735    2.7910    0.0000 O   0  0  0  0  0  0  0  0  0  0  0  0
  1  2  1  0
  2  3  2  0
  3  4  1  0
  4  5  2  0
  5  6  1  0
  7  6  1  1
  7  8  1  0
  8  9  1  0
  9 10  1  0
 10 11  1  0
 11 12  1  0
  8 13  1  0
 13 14  1  0
 15 14  1  1
 15 16  1  0
 16 17  1  6
 17 18  1  0
 18 19  2  0
 16 20  1  0
 20 21  2  0
 20 22  1  0
 22 23  1  0
 23 24  1  0
 24 25  1  1
 18  2  1  0
 19  5  1  0
 24  7  1  0
 12 10  1  0
 19 15  1  0
 24 15  1  0
M  END
$$$$
6902
     RDKit          2D

 24 28  0  0  0  0  0  0  0  0999 V2000
    3.0000    0.0000    0.0000 O   0  0  0  0  0  0  0  0  0  0  0  0
    1.5000    0.0000    0.0000 C   0  0  0  0  0  0  0  0  0  0  0  0
    0.7500   -1.2990    0.0000 C   0  0  0  0  0  0  0  0  0  0  0  0
   -0.7500   -1.2990    0.0000 C   0  0  0  0  0  0  0  0  0  0  0  0
   -1.5000    0.0000    0.0000 C   0  0  0  0  0  0  0  0  0  0  0  0
   -3.0000    0.0000    0.0000 C   0  0  0  0  0  0  0  0  0  0  0  0
   -3.7500    1.2990    0.0000 C   0  0  0  0  0  0  0  0  0  0  0  0
   -4.5000    2.5981    0.0000 N   0  0  0  0  0  0  0  0  0  0  0  0
   -6.0000    2.5981    0.0000 C   0  0  0  0  0  0  0  0  0  0  0  0
   -6.7500    1.2990    0.0000 C   0  0  0  0  0  0  0  0  0  0  0  0
   -8.2500    1.2990    0.0000 C   0  0  0  0  0  0  0  0  0  0  0  0
   -3.7500    3.8971    0.0000 C   0  0  0  0  0  0  0  0  0  0  0  0
   -2.2500    3.8971    0.0000 C   0  0  0  0  0  0  0  0  0  0  0  0
   -1.5000    2.5981    0.0000 C   0  0  0  0  0  0  0  0  0  0  0  0
   -0.7500    3.8971    0.0000 C   0  0  0  0  0  0  0  0  0  0  0  0
    0.6203    3.2870    0.0000 O   0  0  0  0  0  0  0  0  0  0  0  0
    0.7500    1.2990    0.0000 C   0  0  0  0  0  0  0  0  0  0  0  0
   -0.7500    1.2990    0.0000 C   0  0  0  0  0  0  0  0  0  0  0  0
   -1.0404    3.1010    0.0000 C   0  0  0  0  0  0  0  0  0  0  0  0
   -0.7500    6.4952    0.0000 O   0  0  0  0  0  0  0  0  0  0  0  0
   -1.9500    3.3775    0.0000 C   0  0  0  0  0  0  0  0  0  0  0  0
   -2.1654    2.4515    0.0000 C   0  0  0  0  0  0  0  0  0  0  0  0
   -3.0000    2.5981    0.0000 C   0  0  0  0  0  0  0  0  0  0  0  0
   -4.4554    2.9610    0.0000 O   0  0  0  0  0  0  0  0  0  0  0  0
  1  2  1  0
  2  3  2  0
  3  4  1  0
  4  5  2  0
  5  6  1  0
  7  6  1  1
  7  8  1  0
  8  9  1  0
  9 10  1  0
 10 11  2  0
  8 12  1  0
 12 13  1  0
 14 13  1  1
 14 15  1  0
 15 16  1  1
 16 17  1  0
 17 18  2  0
 15 19  1  0
 19 20  2  0
 19 21  1  0
 21 22  1  0
 22 23  1  0
 23 24  1  6
 17  2  1  0
 18  5  1  0
 23  7  1  0
 18 14  1  0
 23 14  1  0
M  END
$$$$
16506
     RDKit          2D

 20 22  0  0  0  0  0  0  0  0999 V2000
   -0.0000   -6.0850    0.0000 O   0  0  0  0  0  0  0  0  0  0  0  0
   -0.0000   -4.5850    0.0000 C   0  0  0  0  0  0  0  0  0  0  0  0
    1.3515   -3.9342    0.0000 N   0  0  0  0  0  0  0  0  0  0  0  0
    1.6852   -2.4718    0.0000 C   0  0  0  0  0  0  0  0  0  0  0  0
    3.1476   -2.1380    0.0000 C   0  0  0  0  0  0  0  0  0  0  0  0
    4.1679   -3.2376    0.0000 C   0  0  0  0  0  0  0  0  0  0  0  0
    5.6303   -2.9038    0.0000 C   0  0  0  0  0  0  0  0  0  0  0  0
    6.0724   -1.4704    0.0000 C   0  0  0  0  0  0  0  0  0  0  0  0
    5.0522   -0.3709    0.0000 C   0  0  0  0  0  0  0  0  0  0  0  0
    3.5898   -0.7046    0.0000 C   0  0  0  0  0  0  0  0  0  0  0  0
    0.7500   -1.2990    0.0000 C   0  0  0  0  0  0  0  0  0  0  0  0
    1.5000    0.0000    0.0000 C   0  0  0  0  0  0  0  0  0  0  0  0
    0.7500    1.2990    0.0000 C   0  0  0  0  0  0  0  0  0  0  0  0
    1.5000    2.5981    0.0000 Cl  0  0  0  0  0  0  0  0  0  0  0  0
   -0.7500    1.2990    0.0000 C   0  0  0  0  0  0  0  0  0  0  0  0
   -1.5000    0.0000    0.0000 C   0  0  0  0  0  0  0  0  0  0  0  0
   -0.7500   -1.2990    0.0000 C   0  0  0  0  0  0  0  0  0  0  0  0
   -1.6852   -2.4718    0.0000 N   0  0  0  0  0  0  0  0  0  0  0  0
   -1.3515   -3.9342    0.0000 C   0  0  0  0  0  0  0  0  0  0  0  0
   -2.5242   -4.8694    0.0000 O   0  0  0  0  0  0  0  0  0  0  0  0
  1  2  1  0
  2  3  1  0
  3  4  2  0
  4  5  1  0
  5  6  2  0
  6  7  1  0
  7  8  2  0
  8  9  1  0
  9 10  2  0
  4 11  1  0
 11 12  2  0
 12 13  1  0
 13 14  1  0
 13 15  2  0
 15 16  1  0
 16 17  2  0
 17 18  1  0
 18 19  1  0
 19 20  2  0
 19  2  1  0
 10  5  1  0
 17 11  1  0
M  END
$$$$
16959
     RDKit          2D

 21 23  0  0  0  0  0  0  0  0999 V2000
   -0.0000   -6.0850    0.0000 O   0  0  0  0  0  0  0  0  0  0  0  0
   -0.0000   -4.5850    0.0000 C   0  0  0  0  0  0  0  0  0  0  0  0
    1.3515   -3.9342    0.0000 N   0  0  0  0  0  0  0  0  0  0  0  0
    1.6852   -2.4718    0.0000 C   0  0  0  0  0  0  0  0  0  0  0  0
    3.1476   -2.1380    0.0000 C   0  0  0  0  0  0  0  0  0  0  0  0
    4.1679   -3.2376    0.0000 C   0  0  0  0  0  0  0  0  0  0  0  0
    5.6303   -2.9038    0.0000 C   0  0  0  0  0  0  0  0  0  0  0  0
    6.0724   -1.4704    0.0000 C   0  0  0  0  0  0  0  0  0  0  0  0
    5.0522   -0.3709    0.0000 C   0  0  0  0  0  0  0  0  0  0  0  0
    3.5898   -0.7046    0.0000 C   0  0  0  0  0  0  0  0  0  0  0  0
    2.5695    0.3949    0.0000 Cl  0  0  0  0  0  0  0  0  0  0  0  0
    0.7500   -1.2990    0.0000 C   0  0  0  0  0  0  0  0  0  0  0  0
    1.5000    0.0000    0.0000 C   0  0  0  0  0  0  0  0  0  0  0  0
    0.7500    1.2990    0.0000 C   0  0  0  0  0  0  0  0  0  0  0  0
    1.5000    2.5981    0.0000 Cl  0  0  0  0  0  0  0  0  0  0  0  0
   -0.7500    1.2990    0.0000 C   0  0  0  0  0  0  0  0  0  0  0  0
   -1.5000    0.0000    0.0000 C   0  0  0  0  0  0  0  0  0  0  0  0
   -0.7500   -1.2990    0.0000 C   0  0  0  0  0  0  0  0  0  0  0  0
   -1.6852   -2.4718    0.0000 N   0  0  0  0  0  0  0  0  0  0  0  0
   -1.3515   -3.9342    0.0000 C   0  0  0  0  0  0  0  0  0  0  0  0
   -2.5242   -4.8694    0.0000 O   0  0  0  0  0  0  0  0  0  0  0  0
  1  2  1  0
  2  3  1  0
  3  4  2  0
  4  5  1  0
  5  6  2  0
  6  7  1  0
  7  8  2  0
  8  9  1  0
  9 10  2  0
 10 11  1  0
  4 12  1  0
 12 13  2  0
 13 14  1  0
 14 15  1  0
 14 16  2  0
 16 17  1  0
 17 18  2  0
 18 19  1  0
 19 20  1  0
 20 21  2  0
 20  2  1  0
 10  5  1  0
 18 12  1  0
M  END
$$$$
286065
     RDKit          2D

  7  6  0  0  0  0  0  0  0  0999 V2000
   -1.2990    0.7500    0.0000 O   0  0  0  0  0  0  0  0  0  0  0  0
    0.0000    0.0000    0.0000 C   0  0  0  0  0  0  0  0  0  0  0  0
    1.2990    0.7500    0.0000 C   0  0  0  0  0  0  0  0  0  0  0  0
    2.5981   -0.0000    0.0000 C   0  0  0  0  0  0  0  0  0  0  0  0
    3.8971    0.7500    0.0000 C   0  0  0  0  0  0  0  0  0  0  0  0
    3.8971    2.2500    0.0000 O   0  0  0  0  0  0  0  0  0  0  0  0
    5.1962   -0.0000    0.0000 O   0  0  0  0  0  0  0  0  0  0  0  0
  1  2  1  0
  2  3  1  0
  3  4  1  0
  4  5  1  0
  5  6  2  0
  5  7  1  0
M  END
$$$$
86042
     RDKit          2D

 36 39  0  0  0  0  0  0  0  0999 V2000
    6.0000   -2.5981    0.0000 O   0  0  0  0  0  0  0  0  0  0  0  0
    5.2500   -1.2990    0.0000 C   0  0  0  0  0  0  0  0  0  0  0  0
    3.7500   -1.2990    0.0000 C   0  0  0  0  0  0  0  0  0  0  0  0
    3.0000    0.0000    0.0000 N   0  0  0  0  0  0  0  0  0  0  0  0
    3.7500    1.2990    0.0000 C   0  0  0  0  0  0  0  0  0  0  0  0
    5.2500    1.2990    0.0000 C   0  0  0  0  0  0  0  0  0  0  0  0
    6.0000    2.5981    0.0000 O   0  0  0  0  0  0  0  0  0  0  0  0
    1.5000    0.0000    0.0000 C   0  0  0  0  0  0  0  0  0  0  0  0
    0.7500   -1.2990    0.0000 N   0  0  0  0  0  0  0  0  0  0  0  0
   -0.7500   -1.2990    0.0000 C   0  0  0  0  0  0  0  0  0  0  0  0
   -1.5000   -2.5981    0.0000 N   0  0  0  0  0  0  0  0  0  0  0  0
   -3.0000   -2.5981    0.0000 C   0  0  0  0  0  0  0  0  0  0  0  0
   -3.7500   -3.8971    0.0000 C   0  0  0  0  0  0  0  0  0  0  0  0
   -3.0000   -5.1962    0.0000 C   0  0  0  0  0  0  0  0  0  0  0  0
   -1.5000   -5.1962    0.0000 C   0  0  0  0  0  0  0  0  0  0  0  0
   -0.7500   -3.8971    0.0000 C   0  0  0  0  0  0  0  0  0  0  0  0
   -1.5000    0.0000    0.0000 C   0  0  0  0  0  0  0  0  0  0  0  0
   -3.0000    0.0000    0.0000 N   0  0  0  0  0  0  0  0  0  0  0  0
   -3.7500    1.2990    0.0000 C   0  0  0  0  0  0  0  0  0  0  0  0
   -3.0000    2.5981    0.0000 N   0  0  0  0  0  0  0  0  0  0  0  0
   -1.5000    2.5981    0.0000 C   0  0  0  0  0  0  0  0  0  0  0  0
   -0.7500    3.8971    0.0000 N   0  0  0  0  0  0  0  0  0  0  0  0
    0.7500    3.8971    0.0000 C   0  0  0  0  0  0  0  0  0  0  0  0
    1.5000    5.1962    0.0000 C   0  0  0  0  0  0  0  0  0  0  0  0
    0.7500    6.4952    0.0000 C   0  0  0  0  0  0  0  0  0  0  0  0
   -0.7500    6.4952    0.0000 C   0  0  0  0  0  0  0  0  0  0  0  0
   -1.5000    5.1962    0.0000 C   0  0  0  0  0  0  0  0  0  0  0  0
   -0.7500    1.2990    0.0000 C   0  0  0  0  0  0  0  0  0  0  0  0
    0.7500    1.2990    0.0000 N   0  0  0  0  0  0  0  0  0  0  0  0
   -5.2500    1.2990    0.0000 N   0  0  0  0  0  0  0  0  0  0  0  0
   -6.0000    2.5981    0.0000 C   0  0  0  0  0  0  0  0  0  0  0  0
   -7.5000    2.5981    0.0000 C   0  0  0  0  0  0  0  0  0  0  0  0
   -8.2500    3.8971    0.0000 O   0  0  0  0  0  0  0  0  0  0  0  0
   -6.0000    0.0000    0.0000 C   0  0  0  0  0  0  0  0  0  0  0  0
   -7.5000    0.0000    0.0000 C   0  0  0  0  0  0  0  0  0  0  0  0
   -8.2500   -1.2990    0.0000 O   0  0  0  0  0  0  0  0  0  0  0  0
  1  2  1  0
  2  3  1  0
  3  4  1  0
  4  5  1  0
  5  6  1  0
  6  7  1  0
  4  8  1  0
  8  9  2  0
  9 10  1  0
 10 11  1  0
 11 12  1  0
 12 13  1  0
 13 14  1  0
 14 15  1  0
 15 16  1  0
 10 17  2  0
 17 18  1  0
 18 19  2  0
 19 20  1  0
 20 21  2  0
 21 22  1  0
 22 23  1  0
 23 24  1  0
 24 25  1  0
 25 26  1  0
 26 27  1  0
 21 28  1  0
 28 29  2  0
 19 30  1  0
 30 31  1  0
 31 32  1  0
 32 33  1  0
 30 34  1  0
 34 35  1  0
 35 36  1  0
 29  8  1  0
 16 11  1  0
 28 17  1  0
 27 22  1  0
M  END
$$$$
36842
     RDKit          2D

 30 33  0  0  0  0  0  0  0  0999 V2000
    8.2500  -11.6913    0.0000 O   0  0  0  0  0  0  0  0  0  0  0  0
    7.5000  -10.3923    0.0000 C   0  0  0  0  0  0  0  0  0  0  0  0
    8.2500   -9.0933    0.0000 C   0  0  0  0  0  0  0  0  0  0  0  0
    7.5000   -7.7942    0.0000 N   0  0  0  0  0  0  0  0  0  0  0  0
    6.0000   -7.7942    0.0000 C   0  0  0  0  0  0  0  0  0  0  0  0
    5.2500   -6.4952    0.0000 C   0  0  0  0  0  0  0  0  0  0  0  0
    6.0000   -5.1962    0.0000 N   0  0  0  0  0  0  0  0  0  0  0  0
    5.2500   -3.8971    0.0000 C   0  0  0  0  0  0  0  0  0  0  0  0
    3.7500   -3.8971    0.0000 C   0  0  0  0  0  0  0  0  0  0  0  0
    3.0000   -2.5981    0.0000 C   0  0  0  0  0  0  0  0  0  0  0  0
    1.5000   -2.5981    0.0000 N   0  0  0  0  0  0  0  0  0  0  0  0
    0.7500   -1.2990    0.0000 C   0  0  0  0  0  0  0  0  0  0  0  0
    1.5000    0.0000    0.0000 C   0  0  0  0  0  0  0  0  0  0  0  0
    0.7500    1.2990    0.0000 C   0  0  0  0  0  0  0  0  0  0  0  0
   -0.7500    1.2990    0.0000 C   0  0  0  0  0  0  0  0  0  0  0  0
   -1.5000    0.0000    0.0000 C   0  0  0  0  0  0  0  0  0  0  0  0
   -0.7500   -1.2990    0.0000 C   0  0  0  0  0  0  0  0  0  0  0  0
   -1.5000   -2.5981    0.0000 S   0  0  0  0  0  0  0  0  0  0  0  0
   -0.7500   -3.8971    0.0000 C   0  0  0  0  0  0  0  0  0  0  0  0
   -1.5000   -5.1962    0.0000 C   0  0  0  0  0  0  0  0  0  0  0  0
   -0.7500   -6.4952    0.0000 C   0  0  0  0  0  0  0  0  0  0  0  0
    0.7500   -6.4952    0.0000 C   0  0  0  0  0  0  0  0  0  0  0  0
    1.5000   -5.1962    0.0000 C   0  0  0  0  0  0  0  0  0  0  0  0
    0.7500   -3.8971    0.0000 C   0  0  0  0  0  0  0  0  0  0  0  0
    1.5000   -7.7942    0.0000 C   0  0  0  0  0  0  0  0  0  0  0  0
    2.2500   -9.0933    0.0000 F   0  0  0  0  0  0  0  0  0  0  0  0
    0.2010   -8.5442    0.0000 F   0  0  0  0  0  0  0  0  0  0  0  0
    2.7990   -7.0442    0.0000 F   0  0  0  0  0  0  0  0  0  0  0  0
    7.5000   -5.1962    0.0000 C   0  0  0  0  0  0  0  0  0  0  0  0
    8.2500   -6.4952    0.0000 C   0  0  0  0  0  0  0  0  0  0  0  0
  1  2  1  0
  2  3  1  0
  3  4  1  0
  4  5  1  0
  5  6  1  0
  6  7  1  0
  7  8  1  0
  8  9  1  0
  9 10  1  0
 10 11  1  0
 11 12  1  0
 12 13  2  0
 13 14  1  0
 14 15  2  0
 15 16  1  0
 16 17  2  0
 17 18  1  0
 18 19  1  0
 19 20  2  0
 20 21  1  0
 21 22  2  0
 22 23  1  0
 23 24  2  0
 22 25  1  0
 25 26  1  0
 25 27  1  0
 25 28  1  0
  7 29  1  0
 29 30  1  0
 30  4  1  0
 24 11  1  0
 17 12  1  0
 24 19  1  0
M  END
$$$$
16505
     RDKit          2D

 27 30  0  0  0  0  0  0  0  0999 V2000
    8.2500  -11.6913    0.0000 O   0  0  0  0  0  0  0  0  0  0  0  0
    7.5000  -10.3923    0.0000 C   0  0  0  0  0  0  0  0  0  0  0  0
    8.2500   -9.0933    0.0000 C   0  0  0  0  0  0  0  0  0  0  0  0
    7.5000   -7.7942    0.0000 N   0  0  0  0  0  0  0  0  0  0  0  0
    6.0000   -7.7942    0.0000 C   0  0  0  0  0  0  0  0  0  0  0  0
    5.2500   -6.4952    0.0000 C   0  0  0  0  0  0  0  0  0  0  0  0
    6.0000   -5.1962    0.0000 N   0  0  0  0  0  0  0  0  0  0  0  0
    5.2500   -3.8971    0.0000 C   0  0  0  0  0  0  0  0  0  0  0  0
    3.7500   -3.8971    0.0000 C   0  0  0  0  0  0  0  0  0  0  0  0
    3.0000   -2.5981    0.0000 C   0  0  0  0  0  0  0  0  0  0  0  0
    1.5000   -2.5981    0.0000 N   0  0  0  0  0  0  0  0  0  0  0  0
    0.7500   -1.2990    0.0000 C   0  0  0  0  0  0  0  0  0  0  0  0
    1.5000    0.0000    0.0000 C   0  0  0  0  0  0  0  0  0  0  0  0
    0.7500    1.2990    0.0000 C   0  0  0  0  0  0  0  0  0  0  0  0
   -0.7500    1.2990    0.0000 C   0  0  0  0  0  0  0  0  0  0  0  0
   -1.5000    0.0000    0.0000 C   0  0  0  0  0  0  0  0  0  0  0  0
   -0.7500   -1.2990    0.0000 C   0  0  0  0  0  0  0  0  0  0  0  0
   -1.5000   -2.5981    0.0000 S   0  0  0  0  0  0  0  0  0  0  0  0
   -0.7500   -3.8971    0.0000 C   0  0  0  0  0  0  0  0  0  0  0  0
   -1.5000   -5.1962    0.0000 C   0  0  0  0  0  0  0  0  0  0  0  0
   -0.7500   -6.4952    0.0000 C   0  0  0  0  0  0  0  0  0  0  0  0
    0.7500   -6.4952    0.0000 C   0  0  0  0  0  0  0  0  0  0  0  0
    1.5000   -7.7942    0.0000 Cl  0  0  0  0  0  0  0  0  0  0  0  0
    1.5000   -5.1962    0.0000 C   0  0  0  0  0  0  0  0  0  0  0  0
    0.7500   -3.8971    0.0000 C   0  0  0  0  0  0  0  0  0  0  0  0
    7.5000   -5.1962    0.0000 C   0  0  0  0  0  0  0  0  0  0  0  0
    8.2500   -6.4952    0.0000 C   0  0  0  0  0  0  0  0  0  0  0  0
  1  2  1  0
  2  3  1  0
  3  4  1  0
  4  5  1  0
  5  6  1  0
  6  7  1  0
  7  8  1  0
  8  9  1  0
  9 10  1  0
 10 11  1  0
 11 12  1  0
 12 13  2  0
 13 14  1  0
 14 15  2  0
 15 16  1  0
 16 17  2  0
 17 18  1  0
 18 19  1  0
 19 20  2  0
 20 21  1  0
 21 22  2  0
 22 23  1  0
 22 24  1  0
 24 25  2  0
  7 26  1  0
 26 27  1  0
 27  4  1  0
 25 11  1  0
 17 12  1  0
 25 19  1  0
M  END
$$$$
445681
     RDKit          2D

 14 14  0  0  0  0  0  0  0  0999 V2000
    5.2500   -1.2990    0.0000 O   0  0  0  0  0  0  0  0  0  0  0  0
    3.7500   -1.2990    0.0000 C   0  0  0  0  0  0  0  0  0  0  0  0
    3.0000    0.0000    0.0000 C   0  0  0  0  0  0  0  0  0  0  0  0
    1.5000    0.0000    0.0000 N   0  0  0  0  0  0  0  0  0  0  0  0
    0.7500   -1.2990    0.0000 C   0  0  0  0  0  0  0  0  0  0  0  0
   -0.7500   -1.2990    0.0000 C   0  0  0  0  0  0  0  0  0  0  0  0
   -1.5000   -2.5981    0.0000 O   0  0  0  0  0  0  0  0  0  0  0  0
   -1.5000    0.0000    0.0000 C   0  0  0  0  0  0  0  0  0  0  0  0
   -3.0000    0.0000    0.0000 O   0  0  0  0  0  0  0  0  0  0  0  0
   -0.7500    1.2990    0.0000 C   0  0  0  0  0  0  0  0  0  0  0  0
   -1.5000    2.5981    0.0000 O   0  0  0  0  0  0  0  0  0  0  0  0
    0.7500    1.2990    0.0000 C   0  0  0  0  0  0  0  0  0  0  0  0
    1.5000    2.5981    0.0000 C   0  0  0  0  0  0  0  0  0  0  0  0
    3.0000    2.5981    0.0000 O   0  0  0  0  0  0  0  0  0  0  0  0
  1  2  1  0
  2  3  1  0
  3  4  1  0
  4  5  1  0
  5  6  1  0
  6  7  1  6
  6  8  1  0
  8  9  1  1
  8 10  1  0
 10 11  1  6
 10 12  1  0
 12 13  1  1
 13 14  1  0
 12  4  1  0
M  END
$$$$
1377665
     RDKit          2D

 27 29  0  0  0  0  0  0  0  0999 V2000
    6.0000   -2.5981    0.0000 O   0  0  0  0  0  0  0  0  0  0  0  0
    5.2500   -1.2990    0.0000 C   0  0  0  0  0  0  0  0  0  0  0  0
    3.7500   -1.2990    0.0000 C   0  0  0  0  0  0  0  0  0  0  0  0
    3.0000    0.0000    0.0000 O   0  0  0  0  0  0  0  0  0  0  0  0
    1.5000    0.0000    0.0000 C   0  0  0  0  0  0  0  0  0  0  0  0
    0.7500   -1.2990    0.0000 C   0  0  0  0  0  0  0  0  0  0  0  0
   -0.7500   -1.2990    0.0000 C   0  0  0  0  0  0  0  0  0  0  0  0
   -1.5000    0.0000    0.0000 C   0  0  0  0  0  0  0  0  0  0  0  0
   -0.7500    1.2990    0.0000 C   0  0  0  0  0  0  0  0  0  0  0  0
    0.7500    1.2990    0.0000 C   0  0  0  0  0  0  0  0  0  0  0  0
   -3.0000    0.0000    0.0000 C   0  0  0  0  0  0  0  0  0  0  0  0
   -3.7500    1.2990    0.0000 C   0  0  0  0  0  0  0  0  0  0  0  0
   -5.2500    1.2990    0.0000 C   0  0  0  0  0  0  0  0  0  0  0  0
   -6.0000    2.5981    0.0000 C   0  0  0  0  0  0  0  0  0  0  0  0
   -7.5000    2.5981    0.0000 Cl  0  0  0  0  0  0  0  0  0  0  0  0
   -3.0000    2.5981    0.0000 C   0  0  0  0  0  0  0  0  0  0  0  0
   -1.5000    2.5981    0.0000 C   0  0  0  0  0  0  0  0  0  0  0  0
   -0.7500    3.8971    0.0000 C   0  0  0  0  0  0  0  0  0  0  0  0
   -1.5000    5.1962    0.0000 C   0  0  0  0  0  0  0  0  0  0  0  0
   -3.0000    5.1962    0.0000 C   0  0  0  0  0  0  0  0  0  0  0  0
   -3.7500    3.8971    0.0000 C   0  0  0  0  0  0  0  0  0  0  0  0
   -3.7500   -1.2990    0.0000 C   0  0  0  0  0  0  0  0  0  0  0  0
   -5.2500   -1.2990    0.0000 C   0  0  0  0  0  0  0  0  0  0  0  0
   -6.0000   -2.5981    0.0000 C   0  0  0  0  0  0  0  0  0  0  0  0
   -5.2500   -3.8971    0.0000 C   0  0  0  0  0  0  0  0  0  0  0  0
   -3.7500   -3.8971    0.0000 C   0  0  0  0  0  0  0  0  0  0  0  0
   -3.0000   -2.5981    0.0000 C   0  0  0  0  0  0  0  0  0  0  0  0
  1  2  1  0
  2  3  1  0
  3  4  1  0
  4  5  1  0
  5  6  2  0
  6  7  1  0
  7  8  2  0
  8  9  1  0
  9 10  2  0
  8 11  1  0
 11 12  2  0
 12 13  1  0
 13 14  1  0
 14 15  1  0
 12 16  1  0
 16 17  2  0
 17 18  1  0
 18 19  2  0
 19 20  1  0
 20 21  2  0
 11 22  1  0
 22 23  2  0
 23 24  1  0
 24 25  2  0
 25 26  1  0
 26 27  2  0
 10  5  1  0
 21 16  1  0
 27 22  1  0
M  END
$$$$
77459
     RDKit          2D

 26 28  0  0  0  0  0  0  0  0999 V2000
    8.2500   -3.8971    0.0000 O   0  0  0  0  0  0  0  0  0  0  0  0
    7.5000   -2.5981    0.0000 C   0  0  0  0  0  0  0  0  0  0  0  0
    6.0000   -2.5981    0.0000 C   0  0  0  0  0  0  0  0  0  0  0  0
    5.2500   -1.2990    0.0000 O   0  0  0  0  0  0  0  0  0  0  0  0
    3.7500   -1.2990    0.0000 C   0  0  0  0  0  0  0  0  0  0  0  0
    3.0000    0.0000    0.0000 C   0  0  0  0  0  0  0  0  0  0  0  0
    1.5000    0.0000    0.0000 N   0  0  0  0  0  0  0  0  0  0  0  0
    0.7500   -1.2990    0.0000 C   0  0  0  0  0  0  0  0  0  0  0  0
   -0.7500   -1.2990    0.0000 C   0  0  0  0  0  0  0  0  0  0  0  0
   -1.5000    0.0000    0.0000 N   0  0  0  0  0  0  0  0  0  0  0  0
   -0.7500    1.2990    0.0000 C   0  0  0  0  0  0  0  0  0  0  0  0
    0.7500    1.2990    0.0000 C   0  0  0  0  0  0  0  0  0  0  0  0
   -3.0000    0.0000    0.0000 C   0  0  0  0  0  0  0  0  0  0  0  0
   -3.7500    1.2990    0.0000 C   0  0  0  0  0  0  0  0  0  0  0  0
   -3.0000    2.5981    0.0000 C   0  0  0  0  0  0  0  0  0  0  0  0
   -3.7500    3.8971    0.0000 C   0  0  0  0  0  0  0  0  0  0  0  0
   -5.2500    3.8971    0.0000 C   0  0  0  0  0  0  0  0  0  0  0  0
   -6.0000    2.5981    0.0000 C   0  0  0  0  0  0  0  0  0  0  0  0
   -5.2500    1.2990    0.0000 C   0  0  0  0  0  0  0  0  0  0  0  0
   -3.7500   -1.2990    0.0000 C   0  0  0  0  0  0  0  0  0  0  0  0
   -5.2500   -1.2990    0.0000 C   0  0  0  0  0  0  0  0  0  0  0  0
   -6.0000   -2.5981    0.0000 C   0  0  0  0  0  0  0  0  0  0  0  0
   -5.2500   -3.8971    0.0000 C   0  0  0  0  0  0  0  0  0  0  0  0
   -6.0000   -5.1962    0.0000 Cl  0  0  0  0  0  0  0  0  0  0  0  0
   -3.7500   -3.8971    0.0000 C   0  0  0  0  0  0  0  0  0  0  0  0
   -3.0000   -2.5981    0.0000 C   0  0  0  0  0  0  0  0  0  0  0  0
  1  2  1  0
  2  3  1  0
  3  4  1  0
  4  5  1  0
  5  6  1  0
  6  7  1  0
  7  8  1  0
  8  9  1  0
  9 10  1  0
 10 11  1  0
 11 12  1  0
 10 13  1  0
 13 14  1  0
 14 15  2  0
 15 16  1  0
 16 17  2  0
 17 18  1  0
 18 19  2  0
 13 20  1  0
 20 21  2  0
 21 22  1  0
 22 23  2  0
 23 24  1  0
 23 25  1  0
 25 26  2  0
 12  7  1  0
 19 14  1  0
 26 20  1  0
M  END
$$$$
674418
     RDKit          2D

 55 60  0  0  0  0  0  0  0  0999 V2000
    8.2500   -3.8971    0.0000 O   0  0  0  0  0  0  0  0  0  0  0  0
    7.5000   -2.5981    0.0000 C   0  0  0  0  0  0  0  0  0  0  0  0
    6.0000   -2.5981    0.0000 C   0  0  0  0  0  0  0  0  0  0  0  0
    5.2500   -1.2990    0.0000 O   0  0  0  0  0  0  0  0  0  0  0  0
    3.7500   -1.2990    0.0000 C   0  0  0  0  0  0  0  0  0  0  0  0
    3.0000    0.0000    0.0000 C   0  0  0  0  0  0  0  0  0  0  0  0
    1.5000    0.0000    0.0000 N   0  0  0  0  0  0  0  0  0  0  0  0
    0.7500   -1.2990    0.0000 C   0  0  0  0  0  0  0  0  0  0  0  0
   -0.7500   -1.2990    0.0000 C   0  0  0  0  0  0  0  0  0  0  0  0
   -1.5000    0.0000    0.0000 N   0  0  0  0  0  0  0  0  0  0  0  0
   -0.7500    1.2990    0.0000 C   0  0  0  0  0  0  0  0  0  0  0  0
    0.7500    1.2990    0.0000 C   0  0  0  0  0  0  0  0  0  0  0  0
   -3.0000    0.0000    0.0000 C   0  0  0  0  0  0  0  0  0  0  0  0
   -3.7500    1.2990    0.0000 C   0  0  0  0  0  0  0  0  0  0  0  0
   -3.0000    2.5981    0.0000 C   0  0  0  0  0  0  0  0  0  0  0  0
   -3.7500    3.8971    0.0000 C   0  0  0  0  0  0  0  0  0  0  0  0
   -5.2500    3.8971    0.0000 C   0  0  0  0  0  0  0  0  0  0  0  0
   -6.0000    2.5981    0.0000 C   0  0  0  0  0  0  0  0  0  0  0  0
   -5.2500    1.2990    0.0000 C   0  0  0  0  0  0  0  0  0  0  0  0
   -3.7500   -1.2990    0.0000 C   0  0  0  0  0  0  0  0  0  0  0  0
   -5.2500   -1.2990    0.0000 C   0  0  0  0  0  0  0  0  0  0  0  0
   -6.0000   -2.5981    0.0000 C   0  0  0  0  0  0  0  0  0  0  0  0
   -5.2500   -3.8971    0.0000 C   0  0  0  0  0  0  0  0  0  0  0  0
   -6.0000   -5.1962    0.0000 Cl  0  0  0  0  0  0  0  0  0  0  0  0
   -3.7500   -3.8971    0.0000 C   0  0  0  0  0  0  0  0  0  0  0  0
   -3.0000   -2.5981    0.0000 C   0  0  0  0  0  0  0  0  0  0  0  0
    0.7500    7.4952    0.0000 O   0  0  0  0  0  0  0  0  0  0  0  0
    1.5000    8.7942    0.0000 C   0  0  0  0  0  0  0  0  0  0  0  0
    3.0000    8.7942    0.0000 O   0  0  0  0  0  0  0  0  0  0  0  0
    0.7500   10.0933    0.0000 C   0  0  0  0  0  0  0  0  0  0  0  0
    1.5000   11.3923    0.0000 C   0  0  0  0  0  0  0  0  0  0  0  0
    0.7500   12.6913    0.0000 C   0  0  0  0  0  0  0  0  0  0  0  0
    1.5000   13.9904    0.0000 C   0  0  0  0  0  0  0  0  0  0  0  0
    0.7500   15.2894    0.0000 C   0  0  0  0  0  0  0  0  0  0  0  0
   -0.7500   15.2894    0.0000 C   0  0  0  0  0  0  0  0  0  0  0  0
   -1.5000   13.9904    0.0000 C   0  0  0  0  0  0  0  0  0  0  0  0
   -0.7500   12.6913    0.0000 C   0  0  0  0  0  0  0  0  0  0  0  0
   -1.5000   11.3923    0.0000 C   0  0  0  0  0  0  0  0  0  0  0  0
   -3.0000   11.3923    0.0000 C   0  0  0  0  0  0  0  0  0  0  0  0
   -3.7500   10.0933    0.0000 C   0  0  0  0  0  0  0  0  0  0  0  0
   -3.0000    8.7942    0.0000 C   0  0  0  0  0  0  0  0  0  0  0  0
   -2.0232    8.6743    0.0000 O   0  0  0  0  0  0  0  0  0  0  0  0
   -3.7500    7.4952    0.0000 C   0  0  0  0  0  0  0  0  0  0  0  0
   -5.2500    7.4952    0.0000 C   0  0  0  0  0  0  0  0  0  0  0  0
   -6.0000    8.7942    0.0000 C   0  0  0  0  0  0  0  0  0  0  0  0
   -7.5000    8.7942    0.0000 C   0  0  0  0  0  0  0  0  0  0  0  0
   -8.2500   10.0933    0.0000 C   0  0  0  0  0  0  0  0  0  0  0  0
   -7.5000   11.3923    0.0000 C   0  0  0  0  0  0  0  0  0  0  0  0
   -6.0000   11.3923    0.0000 C   0  0  0  0  0  0  0  0  0  0  0  0
   -5.2500   10.0933    0.0000 C   0  0  0  0  0  0  0  0  0  0  0  0
   -3.0000    6.1962    0.0000 C   0  0  0  0  0  0  0  0  0  0  0  0
   -1.5000    6.1962    0.0000 O   0  0  0  0  0  0  0  0  0  0  0  0
   -3.7500    4.8971    0.0000 O   0  0  0  0  0  0  0  0  0  0  0  0
   -0.7500   10.0933    0.0000 C   0  0  0  0  0  0  0  0  0  0  0  0
   -1.1345    9.1873    0.0000 O   0  0  0  0  0  0  0  0  0  0  0  0
  1  2  1  0
  2  3  1  0
  3  4  1  0
  4  5  1  0
  5  6  1  0
  6  7  1  0
  7  8  1  0
  8  9  1  0
  9 10  1  0
 10 11  1  0
 11 12  1  0
 10 13  1  0
 13 14  1  0
 14 15  2  0
 15 16  1  0
 16 17  2  0
 17 18  1  0
 18 19  2  0
 13 20  1  0
 20 21  2  0
 21 22  1  0
 22 23  2  0
 23 24  1  0
 23 25  1  0
 25 26  2  0
 27 28  1  0
 28 29  2  0
 28 30  1  0
 30 31  2  0
 31 32  1  0
 32 33  2  0
 33 34  1  0
 34 35  2  0
 35 36  1  0
 36 37  2  0
 37 38  1  0
 38 39  1  0
 39 40  1  0
 40 41  2  0
 41 42  1  0
 41 43  1  0
 43 44  2  0
 44 45  1  0
 45 46  2  0
 46 47  1  0
 47 48  2  0
 48 49  1  0
 49 50  2  0
 43 51  1  0
 51 52  2  0
 51 53  1  0
 38 54  2  0
 54 55  1  0
 12  7  1  0
 19 14  1  0
 26 20  1  0
 54 30  1  0
 37 32  1  0
 50 40  1  0
 50 45  1  0
M  END
$$$$
34234
     RDKit          2D

 27 30  0  0  0  0  0  0  0  0999 V2000
    7.7172  -13.9953    0.0000 O   0  0  0  0  0  0  0  0  0  0  0  0
    7.9408  -12.5121    0.0000 C   0  0  0  0  0  0  0  0  0  0  0  0
    6.7681  -11.5768    0.0000 C   0  0  0  0  0  0  0  0  0  0  0  0
    6.9916  -10.0936    0.0000 O   0  0  0  0  0  0  0  0  0  0  0  0
    5.8189   -9.1584    0.0000 C   0  0  0  0  0  0  0  0  0  0  0  0
    6.0424   -7.6751    0.0000 C   0  0  0  0  0  0  0  0  0  0  0  0
    4.8697   -6.7399    0.0000 N   0  0  0  0  0  0  0  0  0  0  0  0
    3.4734   -7.2879    0.0000 C   0  0  0  0  0  0  0  0  0  0  0  0
    2.3006   -6.3527    0.0000 C   0  0  0  0  0  0  0  0  0  0  0  0
    2.5242   -4.8694    0.0000 N   0  0  0  0  0  0  0  0  0  0  0  0
    3.9205   -4.3214    0.0000 C   0  0  0  0  0  0  0  0  0  0  0  0
    5.0933   -5.2566    0.0000 C   0  0  0  0  0  0  0  0  0  0  0  0
    1.3515   -3.9342    0.0000 C   0  0  0  0  0  0  0  0  0  0  0  0
    1.6852   -2.4718    0.0000 N   0  0  0  0  0  0  0  0  0  0  0  0
    0.7500   -1.2990    0.0000 C   0  0  0  0  0  0  0  0  0  0  0  0
    1.5000    0.0000    0.0000 C   0  0  0  0  0  0  0  0  0  0  0  0
    0.7500    1.2990    0.0000 C   0  0  0  0  0  0  0  0  0  0  0  0
   -0.7500    1.2990    0.0000 C   0  0  0  0  0  0  0  0  0  0  0  0
   -1.5000    0.0000    0.0000 C   0  0  0  0  0  0  0  0  0  0  0  0
   -0.7500   -1.2990    0.0000 C   0  0  0  0  0  0  0  0  0  0  0  0
   -1.6852   -2.4718    0.0000 S   0  0  0  0  0  0  0  0  0  0  0  0
   -1.3515   -3.9342    0.0000 C   0  0  0  0  0  0  0  0  0  0  0  0
   -2.5908   -4.7792    0.0000 C   0  0  0  0  0  0  0  0  0  0  0  0
   -2.4787   -6.2750    0.0000 C   0  0  0  0  0  0  0  0  0  0  0  0
   -1.1273   -6.9258    0.0000 C   0  0  0  0  0  0  0  0  0  0  0  0
    0.1121   -6.0808    0.0000 C   0  0  0  0  0  0  0  0  0  0  0  0
    0.0000   -4.5850    0.0000 C   0  0  0  0  0  0  0  0  0  0  0  0
  1  2  1  0
  2  3  1  0
  3  4  1  0
  4  5  1  0
  5  6  1  0
  6  7  1  0
  7  8  1  0
  8  9  1  0
  9 10  1  0
 10 11  1  0
 11 12  1  0
 10 13  1  0
 13 14  2  0
 14 15  1  0
 15 16  2  0
 16 17  1  0
 17 18  2  0
 18 19  1  0
 19 20  2  0
 20 21  1  0
 21 22  1  0
 22 23  2  0
 23 24  1  0
 24 25  2  0
 25 26  1  0
 26 27  2  0
 12  7  1  0
 27 13  1  0
 20 15  1  0
 27 22  1  0
M  END
$$$$
674862
     RDKit          2D

 35 37  0  0  0  0  0  0  0  0999 V2000
    7.7172  -13.9953    0.0000 O   0  0  0  0  0  0  0  0  0  0  0  0
    7.9408  -12.5121    0.0000 C   0  0  0  0  0  0  0  0  0  0  0  0
    6.7681  -11.5768    0.0000 C   0  0  0  0  0  0  0  0  0  0  0  0
    6.9916  -10.0936    0.0000 O   0  0  0  0  0  0  0  0  0  0  0  0
    5.8189   -9.1584    0.0000 C   0  0  0  0  0  0  0  0  0  0  0  0
    6.0424   -7.6751    0.0000 C   0  0  0  0  0  0  0  0  0  0  0  0
    4.8697   -6.7399    0.0000 N   0  0  0  0  0  0  0  0  0  0  0  0
    3.4734   -7.2879    0.0000 C   0  0  0  0  0  0  0  0  0  0  0  0
    2.3006   -6.3527    0.0000 C   0  0  0  0  0  0  0  0  0  0  0  0
    2.5242   -4.8694    0.0000 N   0  0  0  0  0  0  0  0  0  0  0  0
    3.9205   -4.3214    0.0000 C   0  0  0  0  0  0  0  0  0  0  0  0
    5.0933   -5.2566    0.0000 C   0  0  0  0  0  0  0  0  0  0  0  0
    1.3515   -3.9342    0.0000 C   0  0  0  0  0  0  0  0  0  0  0  0
    1.6852   -2.4718    0.0000 N   0  0  0  0  0  0  0  0  0  0  0  0
    0.7500   -1.2990    0.0000 C   0  0  0  0  0  0  0  0  0  0  0  0
    1.5000    0.0000    0.0000 C   0  0  0  0  0  0  0  0  0  0  0  0
    0.7500    1.2990    0.0000 C   0  0  0  0  0  0  0  0  0  0  0  0
   -0.7500    1.2990    0.0000 C   0  0  0  0  0  0  0  0  0  0  0  0
   -1.5000    0.0000    0.0000 C   0  0  0  0  0  0  0  0  0  0  0  0
   -0.7500   -1.2990    0.0000 C   0  0  0  0  0  0  0  0  0  0  0  0
   -1.6852   -2.4718    0.0000 S   0  0  0  0  0  0  0  0  0  0  0  0
   -1.3515   -3.9342    0.0000 C   0  0  0  0  0  0  0  0  0  0  0  0
   -2.5908   -4.7792    0.0000 C   0  0  0  0  0  0  0  0  0  0  0  0
   -2.4787   -6.2750    0.0000 C   0  0  0  0  0  0  0  0  0  0  0  0
   -1.1273   -6.9258    0.0000 C   0  0  0  0  0  0  0  0  0  0  0  0
    0.1121   -6.0808    0.0000 C   0  0  0  0  0  0  0  0  0  0  0  0
    0.0000   -4.5850    0.0000 C   0  0  0  0  0  0  0  0  0  0  0  0
    8.9408   -1.2990    0.0000 O   0  0  0  0  0  0  0  0  0  0  0  0
   10.4408   -1.2990    0.0000 C   0  0  0  0  0  0  0  0  0  0  0  0
   11.1908   -2.5981    0.0000 O   0  0  0  0  0  0  0  0  0  0  0  0
   11.1908    0.0000    0.0000 C   0  0  0  0  0  0  0  0  0  0  0  0
   12.6908    0.0000    0.0000 C   0  0  0  0  0  0  0  0  0  0  0  0
   13.4408    1.2990    0.0000 C   0  0  0  0  0  0  0  0  0  0  0  0
   12.6908    2.5981    0.0000 O   0  0  0  0  0  0  0  0  0  0  0  0
   14.9408    1.2990    0.0000 O   0  0  0  0  0  0  0  0  0  0  0  0
  1  2  1  0
  2  3  1  0
  3  4  1  0
  4  5  1  0
  5  6  1  0
  6  7  1  0
  7  8  1  0
  8  9  1  0
  9 10  1  0
 10 11  1  0
 11 12  1  0
 10 13  1  0
 13 14  2  0
 14 15  1  0
 15 16  2  0
 16 17  1  0
 17 18  2  0
 18 19  1  0
 19 20  2  0
 20 21  1  0
 21 22  1  0
 22 23  2  0
 23 24  1  0
 24 25  2  0
 25 26  1  0
 26 27  2  0
 28 29  1  0
 29 30  2  0
 29 31  1  0
 31 32  2  0
 32 33  1  0
 33 34  2  0
 33 35  1  0
 12  7  1  0
 27 13  1  0
 20 15  1  0
 27 22  1  0
M  END
$$$$
27340
     RDKit          2D

 20 20  0  0  0  0  0  0  0  0999 V2000
    6.0000   -2.5981    0.0000 O   0  0  0  0  0  0  0  0  0  0  0  0
    5.2500   -1.2990    0.0000 C   0  0  0  0  0  0  0  0  0  0  0  0
    3.7500   -1.2990    0.0000 C   0  0  0  0  0  0  0  0  0  0  0  0
    3.0000   -2.5981    0.0000 N   0  0  0  0  0  0  0  0  0  0  0  0
    3.7500   -3.8971    0.0000 C   0  0  0  0  0  0  0  0  0  0  0  0
    5.2500   -3.8971    0.0000 O   0  0  0  0  0  0  0  0  0  0  0  0
    3.0000   -5.1962    0.0000 C   0  0  0  0  0  0  0  0  0  0  0  0
    3.7500   -6.4952    0.0000 Cl  0  0  0  0  0  0  0  0  0  0  0  0
    1.5000   -5.1962    0.0000 Cl  0  0  0  0  0  0  0  0  0  0  0  0
    3.0000    0.0000    0.0000 C   0  0  0  0  0  0  0  0  0  0  0  0
    3.7500    1.2990    0.0000 O   0  0  0  0  0  0  0  0  0  0  0  0
    1.5000    0.0000    0.0000 C   0  0  0  0  0  0  0  0  0  0  0  0
    0.7500   -1.2990    0.0000 C   0  0  0  0  0  0  0  0  0  0  0  0
   -0.7500   -1.2990    0.0000 C   0  0  0  0  0  0  0  0  0  0  0  0
   -1.5000    0.0000    0.0000 C   0  0  0  0  0  0  0  0  0  0  0  0
   -0.7500    1.2990    0.0000 C   0  0  0  0  0  0  0  0  0  0  0  0
    0.7500    1.2990    0.0000 C   0  0  0  0  0  0  0  0  0  0  0  0
   -3.0000    0.0000    0.0000 N   0  0  0  0  0  4  0  0  0  0  0  0
   -3.7500   -1.2990    0.0000 O   0  0  0  0  0  0  0  0  0  0  0  0
   -3.7500    1.2990    0.0000 O   0  0  0  0  0  1  0  0  0  0  0  0
  1  2  1  0
  3  2  1  1
  3  4  1  0
  4  5  1  0
  5  6  2  0
  5  7  1  0
  7  8  1  0
  7  9  1  0
  3 10  1  0
 10 11  1  1
 10 12  1  0
 12 13  2  0
 13 14  1  0
 14 15  2  0
 15 16  1  0
 16 17  2  0
 15 18  1  0
 18 19  2  0
 18 20  1  0
 17 12  1  0
M  CHG  2  18   1  20  -1
M  END
$$$$
390877
     RDKit          2D

 17 19  0  0  0  0  0  0  0  0999 V2000
   -6.8056   -1.2584    0.0000 O   0  0  0  0  0  0  0  0  0  0  0  0
   -6.4937   -2.7256    0.0000 C   0  0  0  0  0  0  0  0  0  0  0  0
   -5.0672   -3.1891    0.0000 C   0  0  0  0  0  0  0  0  0  0  0  0
   -4.6036   -4.6157    0.0000 C   0  0  0  0  0  0  0  0  0  0  0  0
   -3.1036   -4.6157    0.0000 C   0  0  0  0  0  0  0  0  0  0  0  0
   -2.6401   -3.1891    0.0000 C   0  0  0  0  0  0  0  0  0  0  0  0
   -3.8536   -2.3075    0.0000 O   0  0  0  0  0  0  0  0  0  0  0  0
   -1.2135   -2.7256    0.0000 N   0  0  0  0  0  0  0  0  0  0  0  0
   -0.0000   -3.6073    0.0000 C   0  0  0  0  0  0  0  0  0  0  0  0
    1.2135   -2.7256    0.0000 N   0  0  0  0  0  0  0  0  0  0  0  0
    0.7500   -1.2990    0.0000 C   0  0  0  0  0  0  0  0  0  0  0  0
    1.5000    0.0000    0.0000 C   0  0  0  0  0  0  0  0  0  0  0  0
    3.0000    0.0000    0.0000 O   0  0  0  0  0  0  0  0  0  0  0  0
    0.7500    1.2990    0.0000 N   0  0  0  0  0  0  0  0  0  0  0  0
   -0.7500    1.2990    0.0000 C   0  0  0  0  0  0  0  0  0  0  0  0
   -1.5000    0.0000    0.0000 N   0  0  0  0  0  0  0  0  0  0  0  0
   -0.7500   -1.2990    0.0000 C   0  0  0  0  0  0  0  0  0  0  0  0
  1  2  1  0
  3  2  1  1
  3  4  1  0
  4  5  1  0
  5  6  1  0
  6  7  1  0
  6  8  1  1
  8  9  1  0
  9 10  2  0
 10 11  1  0
 11 12  1  0
 12 13  2  0
 12 14  1  0
 14 15  1  0
 15 16  2  0
 16 17  1  0
  7  3  1  0
 17  8  1  0
 17 11  2  0
M  END
$$$$
443348
     RDKit          2D

 12 12  0  0  0  0  0  0  0  0999 V2000
    5.0260   -1.2990    0.0000 O   0  0  0  0  0  0  0  0  0  0  0  0
    3.5260   -1.2990    0.0000 C   0  0  0  0  0  0  0  0  0  0  0  0
    2.7760    0.0000    0.0000 C   0  0  0  0  0  0  0  0  0  0  0  0
    3.5260    1.2990    0.0000 O   0  0  0  0  0  0  0  0  0  0  0  0
    1.2760    0.0000    0.0000 C   0  0  0  0  0  0  0  0  0  0  0  0
    0.3943    1.2135    0.0000 O   0  0  0  0  0  0  0  0  0  0  0  0
   -1.0323    0.7500    0.0000 C   0  0  0  0  0  0  0  0  0  0  0  0
   -2.2458    1.6317    0.0000 O   0  0  0  0  0  0  0  0  0  0  0  0
   -1.0323   -0.7500    0.0000 C   0  0  0  0  0  0  0  0  0  0  0  0
    0.3943   -1.2135    0.0000 C   0  0  0  0  0  0  0  0  0  0  0  0
    0.8578   -2.6401    0.0000 O   0  0  0  0  0  0  0  0  0  0  0  0
   -2.2458   -1.6317    0.0000 O   0  0  0  0  0  0  0  0  0  0  0  0
  1  2  1  0
  2  3  1  0
  3  4  1  1
  3  5  1  0
  5  6  1  6
  6  7  1  0
  7  8  2  0
  7  9  1  0
  9 10  2  0
 10 11  1  0
  9 12  1  0
 10  5  1  0
M  END
$$$$
76538
     RDKit          2D

 23 24  0  0  0  0  0  0  0  0999 V2000
    3.7500   -1.2990    0.0000 O   0  0  0  0  0  0  0  0  0  0  0  0
    3.0000    0.0000    0.0000 C   0  0  0  0  0  0  0  0  0  0  0  0
    1.5000    0.0000    0.0000 C   0  0  0  0  0  0  0  0  0  0  0  0
    0.7500   -1.2990    0.0000 O   0  0  0  0  0  0  0  0  0  0  0  0
   -0.7500   -1.2990    0.0000 C   0  0  0  0  0  0  0  0  0  0  0  0
   -1.5000   -2.5981    0.0000 O   0  0  0  0  0  0  0  0  0  0  0  0
   -0.7500   -3.8971    0.0000 C   0  0  0  0  0  0  0  0  0  0  0  0
    0.7418   -4.0539    0.0000 C   0  0  0  0  0  0  0  0  0  0  0  0
    1.7455   -2.9392    0.0000 C   0  0  0  0  0  0  0  0  0  0  0  0
    3.2127   -3.2511    0.0000 O   0  0  0  0  0  0  0  0  0  0  0  0
    1.0537   -5.5211    0.0000 O   0  0  0  0  0  0  0  0  0  0  0  0
   -0.2454   -6.2711    0.0000 C   0  0  0  0  0  0  0  0  0  0  0  0
   -1.3601   -7.2748    0.0000 O   0  0  0  0  0  0  0  0  0  0  0  0
    0.6363   -7.4847    0.0000 C   0  0  0  0  0  0  0  0  0  0  0  0
    0.0262   -8.8550    0.0000 O   0  0  0  0  0  0  0  0  0  0  0  0
   -1.3601   -5.2674    0.0000 C   0  0  0  0  0  0  0  0  0  0  0  0
   -2.8273   -5.5793    0.0000 O   0  0  0  0  0  0  0  0  0  0  0  0
   -1.5000    0.0000    0.0000 C   0  0  0  0  0  0  0  0  0  0  0  0
   -3.0000    0.0000    0.0000 O   0  0  0  0  0  0  0  0  0  0  0  0
   -0.7500    1.2990    0.0000 C   0  0  0  0  0  0  0  0  0  0  0  0
   -1.5000    2.5981    0.0000 O   0  0  0  0  0  0  0  0  0  0  0  0
    0.7500    1.2990    0.0000 C   0  0  0  0  0  0  0  0  0  0  0  0
    1.5000    2.5981    0.0000 O   0  0  0  0  0  0  0  0  0  0  0  0
  1  2  1  0
  3  2  1  1
  3  4  1  0
  4  5  1  0
  5  6  1  1
  7  6  1  6
  7  8  1  0
  8  9  1  1
  9 10  1  0
  8 11  1  0
 11 12  1  0
 12 13  1  1
 12 14  1  0
 14 15  1  0
 12 16  1  0
 16 17  1  1
  5 18  1  0
 18 19  1  6
 18 20  1  0
 20 21  1  1
 20 22  1  0
 22 23  1  1
 22  3  1  0
 16  7  1  0
M  END
$$$$
169321
     RDKit          2D

 20 21  0  0  0  0  0  0  0  0999 V2000
    4.8308   -6.3240    0.0000 O   0  0  0  0  0  0  0  0  0  0  0  0
    4.6740   -4.8322    0.0000 C   0  0  0  0  0  0  0  0  0  0  0  0
    3.3037   -4.2221    0.0000 C   0  0  0  0  0  0  0  0  0  0  0  0
    2.9918   -2.7549    0.0000 O   0  0  0  0  0  0  0  0  0  0  0  0
    1.5000   -2.5981    0.0000 C   0  0  0  0  0  0  0  0  0  0  0  0
    0.8899   -3.9684    0.0000 C   0  0  0  0  0  0  0  0  0  0  0  0
    2.0046   -4.9721    0.0000 C   0  0  0  0  0  0  0  0  0  0  0  0
    1.8478   -6.4639    0.0000 O   0  0  0  0  0  0  0  0  0  0  0  0
    0.7500   -1.2990    0.0000 N   0  0  0  0  0  0  0  0  0  0  0  0
    1.5000    0.0000    0.0000 C   0  0  0  0  0  0  0  0  0  0  0  0
    0.7500    1.2990    0.0000 C   0  0  0  0  0  0  0  0  0  0  0  0
   -0.7500    1.2990    0.0000 C   0  0  0  0  0  0  0  0  0  0  0  0
   -1.5000    2.5981    0.0000 O   0  0  0  0  0  0  0  0  0  0  0  0
   -1.5000    0.0000    0.0000 N   0  0  0  0  0  0  0  0  0  0  0  0
   -0.7500   -1.2990    0.0000 C   0  0  0  0  0  0  0  0  0  0  0  0
   -1.5000   -2.5981    0.0000 O   0  0  0  0  0  0  0  0  0  0  0  0
    1.5000    2.5981    0.0000 C   0  0  0  0  0  0  0  0  0  0  0  0
    2.2500    3.8971    0.0000 F   0  0  0  0  0  0  0  0  0  0  0  0
    2.7990    1.8481    0.0000 F   0  0  0  0  0  0  0  0  0  0  0  0
    0.2010    3.3481    0.0000 F   0  0  0  0  0  0  0  0  0  0  0  0
  1  2  1  0
  3  2  1  6
  3  4  1  0
  4  5  1  0
  5  6  1  0
  6  7  1  0
  7  8  1  1
  5  9  1  6
  9 10  1  0
 10 11  2  0
 11 12  1  0
 12 13  2  0
 12 14  1  0
 14 15  1  0
 15 16  2  0
 11 17  1  0
 17 18  1  0
 17 19  1  0
 17 20  1  0
  7  3  1  0
 15  9  1  0
M  END
$$$$
1380100
     RDKit          2D

 31 34  0  0  0  0  0  0  0  0999 V2000
    3.7500   -1.2990    0.0000 O   0  0  0  0  0  0  0  0  0  0  0  0
    3.0000    0.0000    0.0000 C   0  0  0  0  0  0  0  0  0  0  0  0
    1.5000    0.0000    0.0000 C   0  0  0  0  0  0  0  0  0  0  0  0
    0.7500   -1.2990    0.0000 O   0  0  0  0  0  0  0  0  0  0  0  0
   -0.7500   -1.2990    0.0000 C   0  0  0  0  0  0  0  0  0  0  0  0
   -1.5000    0.0000    0.0000 C   0  0  0  0  0  0  0  0  0  0  0  0
   -3.0000    0.0000    0.0000 O   0  0  0  0  0  0  0  0  0  0  0  0
   -0.7500    1.2990    0.0000 C   0  0  0  0  0  0  0  0  0  0  0  0
   -1.5000    2.5981    0.0000 O   0  0  0  0  0  0  0  0  0  0  0  0
    0.7500    1.2990    0.0000 C   0  0  0  0  0  0  0  0  0  0  0  0
    1.5000    2.5981    0.0000 O   0  0  0  0  0  0  0  0  0  0  0  0
   -1.5000   -2.5981    0.0000 C   0  0  0  0  0  0  0  0  0  0  0  0
   -3.0000   -2.5981    0.0000 C   0  0  0  0  0  0  0  0  0  0  0  0
   -3.7500   -3.8971    0.0000 C   0  0  0  0  0  0  0  0  0  0  0  0
   -3.0000   -5.1962    0.0000 C   0  0  0  0  0  0  0  0  0  0  0  0
   -3.7500   -6.4952    0.0000 Cl  0  0  0  0  0  0  0  0  0  0  0  0
   -1.5000   -5.1962    0.0000 C   0  0  0  0  0  0  0  0  0  0  0  0
   -0.7500   -6.4952    0.0000 C   0  0  0  0  0  0  0  0  0  0  0  0
    0.7500   -6.4952    0.0000 C   0  0  0  0  0  0  0  0  0  0  0  0
    1.5000   -7.7942    0.0000 C   0  0  0  0  0  0  0  0  0  0  0  0
    3.0000   -7.7942    0.0000 C   0  0  0  0  0  0  0  0  0  0  0  0
    3.7500   -6.4952    0.0000 C   0  0  0  0  0  0  0  0  0  0  0  0
    5.2500   -6.4952    0.0000 O   0  0  0  0  0  0  0  0  0  0  0  0
    6.0000   -7.7942    0.0000 C   0  0  0  0  0  0  0  0  0  0  0  0
    7.4918   -7.9510    0.0000 C   0  0  0  0  0  0  0  0  0  0  0  0
    7.8037   -9.4182    0.0000 C   0  0  0  0  0  0  0  0  0  0  0  0
    6.5046  -10.1682    0.0000 O   0  0  0  0  0  0  0  0  0  0  0  0
    5.3899   -9.1645    0.0000 C   0  0  0  0  0  0  0  0  0  0  0  0
    3.0000   -5.1962    0.0000 C   0  0  0  0  0  0  0  0  0  0  0  0
    1.5000   -5.1962    0.0000 C   0  0  0  0  0  0  0  0  0  0  0  0
   -0.7500   -3.8971    0.0000 C   0  0  0  0  0  0  0  0  0  0  0  0
  1  2  1  0
  3  2  1  1
  3  4  1  0
  4  5  1  0
  5  6  1  0
  6  7  1  6
  6  8  1  0
  8  9  1  1
  8 10  1  0
 10 11  1  6
  5 12  1  1
 12 13  2  0
 13 14  1  0
 14 15  2  0
 15 16  1  0
 15 17  1  0
 17 18  1  0
 18 19  1  0
 19 20  2  0
 20 21  1  0
 21 22  2  0
 22 23  1  0
 24 23  1  1
 24 25  1  0
 25 26  1  0
 26 27  1  0
 27 28  1  0
 22 29  1  0
 29 30  2  0
 17 31  2  0
 10  3  1  0
 31 12  1  0
 30 19  1  0
 28 24  1  0
M  END
$$$$
44876
     RDKit          2D

 14 15  0  0  0  0  0  0  0  0999 V2000
   -3.8956   -5.7327    0.0000 O   0  0  0  0  0  0  0  0  0  0  0  0
   -2.8349   -4.6721    0.0000 C   0  0  0  0  0  0  0  0  0  0  0  0
   -3.2232   -3.2232    0.0000 C   0  0  0  0  0  0  0  0  0  0  0  0
   -2.1625   -2.1625    0.0000 C   0  0  0  0  0  0  0  0  0  0  0  0
   -0.6810   -2.3972    0.0000 O   0  0  0  0  0  0  0  0  0  0  0  0
   -0.0000   -1.0607    0.0000 C   0  0  0  0  0  0  0  0  0  0  0  0
    1.0607    0.0000    0.0000 C   0  0  0  0  0  0  0  0  0  0  0  0
    0.0000    1.0607    0.0000 C   0  0  0  0  0  0  0  0  0  0  0  0
    0.0000    2.5607    0.0000 O   0  0  0  0  0  0  0  0  0  0  0  0
   -1.0607    0.0000    0.0000 N   0  0  0  0  0  0  0  0  0  0  0  0
   -2.3972   -0.6810    0.0000 C   0  0  0  0  0  0  0  0  0  0  0  0
   -3.7337    0.0000    0.0000 C   0  0  0  0  0  0  0  0  0  0  0  0
   -4.9917   -0.8170    0.0000 O   0  0  0  0  0  0  0  0  0  0  0  0
   -3.8122    1.4979    0.0000 O   0  0  0  0  0  0  0  0  0  0  0  0
  1  2  1  0
  2  3  1  0
  3  4  2  0
  4  5  1  0
  5  6  1  0
  6  7  1  1
  7  8  1  0
  8  9  2  0
  8 10  1  0
 10 11  1  0
 11 12  1  6
 12 13  2  0
 12 14  1  0
 11  4  1  0
 10  6  1  0
M  END
$$$$
11305
     RDKit          2D

 19 19  0  0  0  0  0  0  0  0999 V2000
   14.2500   -6.4952    0.0000 O   0  0  0  0  0  0  0  0  0  0  0  0
   12.7500   -6.4952    0.0000 N   0  0  0  0  0  0  0  0  0  0  0  0
   12.0000   -5.1962    0.0000 C   0  0  0  0  0  0  0  0  0  0  0  0
   12.7500   -3.8971    0.0000 O   0  0  0  0  0  0  0  0  0  0  0  0
   10.5000   -5.1962    0.0000 C   0  0  0  0  0  0  0  0  0  0  0  0
    9.7500   -3.8971    0.0000 C   0  0  0  0  0  0  0  0  0  0  0  0
    8.2500   -3.8971    0.0000 C   0  0  0  0  0  0  0  0  0  0  0  0
    7.5000   -2.5981    0.0000 C   0  0  0  0  0  0  0  0  0  0  0  0
    6.0000   -2.5981    0.0000 C   0  0  0  0  0  0  0  0  0  0  0  0
    5.2500   -1.2990    0.0000 C   0  0  0  0  0  0  0  0  0  0  0  0
    3.7500   -1.2990    0.0000 C   0  0  0  0  0  0  0  0  0  0  0  0
    3.0000   -2.5981    0.0000 O   0  0  0  0  0  0  0  0  0  0  0  0
    3.0000    0.0000    0.0000 N   0  0  0  0  0  0  0  0  0  0  0  0
    1.5000    0.0000    0.0000 C   0  0  0  0  0  0  0  0  0  0  0  0
    0.7500   -1.2990    0.0000 C   0  0  0  0  0  0  0  0  0  0  0  0
   -0.7500   -1.2990    0.0000 C   0  0  0  0  0  0  0  0  0  0  0  0
   -1.5000    0.0000    0.0000 C   0  0  0  0  0  0  0  0  0  0  0  0
   -0.7500    1.2990    0.0000 C   0  0  0  0  0  0  0  0  0  0  0  0
    0.7500    1.2990    0.0000 C   0  0  0  0  0  0  0  0  0  0  0  0
  1  2  1  0
  2  3  1  0
  3  4  2  0
  3  5  1  0
  5  6  1  0
  6  7  1  0
  7  8  1  0
  8  9  1  0
  9 10  1  0
 10 11  1  0
 11 12  2  0
 11 13  1  0
 13 14  1  0
 14 15  2  0
 15 16  1  0
 16 17  2  0
 17 18  1  0
 18 19  2  0
 19 14  1  0
M  END
$$$$
299299
     RDKit          2D

 17 17  0  0  0  0  0  0  0  0999 V2000
    5.2500   -2.7990    0.0000 O   0  0  0  0  0  0  0  0  0  0  0  0
    5.2500   -1.2990    0.0000 P   0  0  0  0  0  0  0  0  0  0  0  0
    6.7500   -1.2990    0.0000 O   0  0  0  0  0  0  0  0  0  0  0  0
    5.2500    0.2010    0.0000 O   0  0  0  0  0  0  0  0  0  0  0  0
    3.7500   -1.2990    0.0000 C   0  0  0  0  0  0  0  0  0  0  0  0
    3.0000    0.0000    0.0000 S   0  0  0  0  0  0  0  0  0  0  0  0
    1.5000    0.0000    0.0000 C   0  0  0  0  0  0  0  0  0  0  0  0
    0.7500   -1.2990    0.0000 C   0  0  0  0  0  0  0  0  0  0  0  0
   -0.7500   -1.2990    0.0000 C   0  0  0  0  0  0  0  0  0  0  0  0
   -1.5000    0.0000    0.0000 C   0  0  0  0  0  0  0  0  0  0  0  0
   -3.0000    0.0000    0.0000 Cl  0  0  0  0  0  0  0  0  0  0  0  0
   -0.7500    1.2990    0.0000 C   0  0  0  0  0  0  0  0  0  0  0  0
    0.7500    1.2990    0.0000 C   0  0  0  0  0  0  0  0  0  0  0  0
    3.0000   -2.5981    0.0000 P   0  0  0  0  0  0  0  0  0  0  0  0
    2.2500   -3.8971    0.0000 O   0  0  0  0  0  0  0  0  0  0  0  0
    4.2990   -3.3481    0.0000 O   0  0  0  0  0  0  0  0  0  0  0  0
    1.7010   -1.8481    0.0000 O   0  0  0  0  0  0  0  0  0  0  0  0
  1  2  1  0
  2  3  2  0
  2  4  1  0
  2  5  1  0
  5  6  1  0
  6  7  1  0
  7  8  2  0
  8  9  1  0
  9 10  2  0
 10 11  1  0
 10 12  1  0
 12 13  2  0
  5 14  1  0
 14 15  2  0
 14 16  1  0
 14 17  1  0
 13  7  1  0
M  END
$$$$
1158402
     RDKit          2D

 28 30  0  0  0  0  0  0  0  0999 V2000
    0.0000    5.6970    0.0000 O   0  0  0  0  0  0  0  0  0  0  0  0
    1.2990    6.4470    0.0000 P   0  0  0  0  0  0  0  0  0  0  0  0
    2.5981    7.1970    0.0000 O   0  0  0  0  0  0  0  0  0  0  0  0
    0.5490    7.7460    0.0000 O   0  0  0  0  0  0  0  0  0  0  0  0
    2.0490    5.1480    0.0000 O   0  0  0  0  0  0  0  0  0  0  0  0
  -10.5923    4.1480    0.0000 N   0  0  0  0  0  0  0  0  0  0  0  0
   -9.1657    3.6844    0.0000 C   0  0  0  0  0  0  0  0  0  0  0  0
   -7.7391    3.2209    0.0000 C   0  0  0  0  0  0  0  0  0  0  0  0
   -7.4272    1.7537    0.0000 C   0  0  0  0  0  0  0  0  0  0  0  0
   -8.5419    0.7500    0.0000 C   0  0  0  0  0  0  0  0  0  0  0  0
   -8.3851   -0.7418    0.0000 C   0  0  0  0  0  0  0  0  0  0  0  0
   -9.7555   -1.3519    0.0000 C   0  0  0  0  0  0  0  0  0  0  0  0
  -10.7592   -0.2372    0.0000 C   0  0  0  0  0  0  0  0  0  0  0  0
  -10.0092    1.0619    0.0000 C   0  0  0  0  0  0  0  0  0  0  0  0
   -6.0006    1.2902    0.0000 N   0  0  0  0  0  0  0  0  0  0  0  0
   -4.7871    2.1718    0.0000 C   0  0  0  0  0  0  0  0  0  0  0  0
   -3.5736    1.2902    0.0000 C   0  0  0  0  0  0  0  0  0  0  0  0
   -4.0371   -0.1364    0.0000 C   0  0  0  0  0  0  0  0  0  0  0  0
   -5.5371   -0.1364    0.0000 N   0  0  0  0  0  0  0  0  0  0  0  0
   -2.1470    1.7537    0.0000 C   0  0  0  0  0  0  0  0  0  0  0  0
   -1.8351    3.2209    0.0000 N   0  0  0  0  0  0  0  0  0  0  0  0
   -0.4086    3.6844    0.0000 C   0  0  0  0  0  0  0  0  0  0  0  0
    0.7062    2.6807    0.0000 N   0  0  0  0  0  0  0  0  0  0  0  0
    0.3943    1.2135    0.0000 C   0  0  0  0  0  0  0  0  0  0  0  0
    1.2760    0.0000    0.0000 N   0  0  0  0  0  0  0  0  0  0  0  0
    0.3943   -1.2135    0.0000 C   0  0  0  0  0  0  0  0  0  0  0  0
   -1.0323   -0.7500    0.0000 C   0  0  0  0  0  0  0  0  0  0  0  0
   -1.0323    0.7500    0.0000 C   0  0  0  0  0  0  0  0  0  0  0  0
  1  2  1  0
  2  3  2  0
  2  4  1  0
  2  5  1  0
  6  7  3  0
  7  8  1  0
  9  8  1  1
  9 10  1  0
 10 11  1  0
 11 12  1  0
 12 13  1  0
 13 14  1  0
  9 15  1  0
 15 16  1  0
 16 17  2  0
 17 18  1  0
 18 19  2  0
 17 20  1  0
 20 21  2  0
 21 22  1  0
 22 23  2  0
 23 24  1  0
 24 25  1  0
 25 26  1  0
 26 27  2  0
 27 28  1  0
 14 10  1  0
 19 15  1  0
 28 20  1  0
 28 24  2  0
M  END
$$$$
675268
     RDKit          2D

 10  9  0  0  0  0  0  0  0  0999 V2000
   -1.8481   -1.2990    0.0000 O   0  0  0  0  0  0  0  0  0  0  0  0
   -2.5981    0.0000    0.0000 P   0  0  0  0  0  0  0  0  0  0  0  0
   -3.3481    1.2990    0.0000 O   0  0  0  0  0  0  0  0  0  0  0  0
   -3.8971   -0.7500    0.0000 O   0  0  0  0  0  0  0  0  0  0  0  0
   -1.2990    0.7500    0.0000 O   0  0  0  0  0  0  0  0  0  0  0  0
    0.0000    0.0000    0.0000 C   0  0  0  0  0  0  0  0  0  0  0  0
    1.2990    0.7500    0.0000 C   0  0  0  0  0  0  0  0  0  0  0  0
    2.5981    1.5000    0.0000 Cl  0  0  0  0  0  0  0  0  0  0  0  0
    2.0490   -0.5490    0.0000 Cl  0  0  0  0  0  0  0  0  0  0  0  0
    0.5490    2.0490    0.0000 Cl  0  0  0  0  0  0  0  0  0  0  0  0
  1  2  1  0
  2  3  2  0
  2  4  1  0
  2  5  1  0
  5  6  1  0
  6  7  1  0
  7  8  1  0
  7  9  1  0
  7 10  1  0
M  END
$$$$
39857
     RDKit          2D

 14 15  0  0  0  0  0  0  0  0999 V2000
   -4.4192   -4.3445    0.0000 O   0  0  0  0  0  0  0  0  0  0  0  0
   -2.9520   -4.6564    0.0000 S   0  0  0  0  0  0  0  0  0  0  0  0
   -3.2638   -6.1236    0.0000 N   0  0  0  0  0  0  0  0  0  0  0  0
   -1.4848   -4.9682    0.0000 O   0  0  0  0  0  0  0  0  0  0  0  0
   -2.6401   -3.1891    0.0000 C   0  0  0  0  0  0  0  0  0  0  0  0
   -1.2135   -2.7256    0.0000 C   0  0  0  0  0  0  0  0  0  0  0  0
   -0.0000   -3.6073    0.0000 N   0  0  0  0  0  0  0  0  0  0  0  0
    1.2135   -2.7256    0.0000 O   0  0  0  0  0  0  0  0  0  0  0  0
    0.7500   -1.2990    0.0000 C   0  0  0  0  0  0  0  0  0  0  0  0
    1.5000    0.0000    0.0000 C   0  0  0  0  0  0  0  0  0  0  0  0
    0.7500    1.2990    0.0000 C   0  0  0  0  0  0  0  0  0  0  0  0
   -0.7500    1.2990    0.0000 C   0  0  0  0  0  0  0  0  0  0  0  0
   -1.5000    0.0000    0.0000 C   0  0  0  0  0  0  0  0  0  0  0  0
   -0.7500   -1.2990    0.0000 C   0  0  0  0  0  0  0  0  0  0  0  0
  1  2  1  0
  2  3  2  0
  2  4  2  0
  2  5  1  0
  5  6  1  0
  6  7  2  0
  7  8  1  0
  8  9  1  0
  9 10  2  0
 10 11  1  0
 11 12  2  0
 12 13  1  0
 13 14  2  0
 14  6  1  0
 14  9  1  0
M  END
$$$$
624467
     RDKit          2D

  7  6  0  0  0  0  0  0  0  0999 V2000
   -2.5981    1.5000    0.0000 O   0  0  0  0  0  0  0  0  0  0  0  0
   -1.2990    0.7500    0.0000 S   0  0  0  0  0  0  0  0  0  0  0  0
   -2.0490   -0.5490    0.0000 O   0  0  0  0  0  0  0  0  0  0  0  0
   -0.5490    2.0490    0.0000 O   0  0  0  0  0  0  0  0  0  0  0  0
    0.0000    0.0000    0.0000 C   0  0  0  0  0  0  0  0  0  0  0  0
    1.2990    0.7500    0.0000 C   0  0  0  0  0  0  0  0  0  0  0  0
    2.5981   -0.0000    0.0000 S   0  0  0  0  0  0  0  0  0  0  0  0
  1  2  1  0
  2  3  2  0
  2  4  2  0
  2  5  1  0
  5  6  1  0
  6  7  1  0
M  END
$$$$
1120185
     RDKit          2D

 29 31  0  0  0  0  0  0  0  0999 V2000
    4.5000   -2.5981    0.0000 O   0  0  0  0  0  0  0  0  0  0  0  0
    3.7500   -1.2990    0.0000 S   0  0  0  0  0  0  0  0  0  0  0  0
    2.4510   -2.0490    0.0000 O   0  0  0  0  0  0  0  0  0  0  0  0
    5.0490   -0.5490    0.0000 O   0  0  0  0  0  0  0  0  0  0  0  0
    3.0000    0.0000    0.0000 O   0  0  0  0  0  0  0  0  0  0  0  0
    1.5000    0.0000    0.0000 C   0  0  0  0  0  0  0  0  0  0  0  0
    0.7500   -1.2990    0.0000 C   0  0  0  0  0  0  0  0  0  0  0  0
   -0.7500   -1.2990    0.0000 C   0  0  0  0  0  0  0  0  0  0  0  0
   -1.5000    0.0000    0.0000 C   0  0  0  0  0  0  0  0  0  0  0  0
   -0.7500    1.2990    0.0000 C   0  0  0  0  0  0  0  0  0  0  0  0
    0.7500    1.2990    0.0000 C   0  0  0  0  0  0  0  0  0  0  0  0
   -3.0000    0.0000    0.0000 C   0  0  0  0  0  0  0  0  0  0  0  0
   -3.7500    1.2990    0.0000 C   0  0  0  0  0  0  0  0  0  0  0  0
   -3.0000    2.5981    0.0000 C   0  0  0  0  0  0  0  0  0  0  0  0
   -3.7500    3.8971    0.0000 C   0  0  0  0  0  0  0  0  0  0  0  0
   -5.2500    3.8971    0.0000 C   0  0  0  0  0  0  0  0  0  0  0  0
   -6.0000    5.1962    0.0000 O   0  0  0  0  0  0  0  0  0  0  0  0
   -5.2500    6.4952    0.0000 S   0  0  0  0  0  0  0  0  0  0  0  0
   -3.9510    5.7452    0.0000 O   0  0  0  0  0  0  0  0  0  0  0  0
   -6.5490    7.2452    0.0000 O   0  0  0  0  0  0  0  0  0  0  0  0
   -4.5000    7.7942    0.0000 O   0  0  0  0  0  0  0  0  0  0  0  0
   -6.0000    2.5981    0.0000 C   0  0  0  0  0  0  0  0  0  0  0  0
   -5.2500    1.2990    0.0000 C   0  0  0  0  0  0  0  0  0  0  0  0
   -3.7500   -1.2990    0.0000 C   0  0  0  0  0  0  0  0  0  0  0  0
   -5.2500   -1.2990    0.0000 C   0  0  0  0  0  0  0  0  0  0  0  0
   -6.0000   -2.5981    0.0000 C   0  0  0  0  0  0  0  0  0  0  0  0
   -5.2500   -3.8971    0.0000 C   0  0  0  0  0  0  0  0  0  0  0  0
   -3.7500   -3.8971    0.0000 C   0  0  0  0  0  0  0  0  0  0  0  0
   -3.0000   -2.5981    0.0000 N   0  0  0  0  0  0  0  0  0  0  0  0
  1  2  1  0
  2  3  2  0
  2  4  2  0
  2  5  1  0
  5  6  1  0
  6  7  2  0
  7  8  1  0
  8  9  2  0
  9 10  1  0
 10 11  2  0
  9 12  1  0
 12 13  1  0
 13 14  2  0
 14 15  1  0
 15 16  2  0
 16 17  1  0
 17 18  1  0
 18 19  2  0
 18 20  2  0
 18 21  1  0
 16 22  1  0
 22 23  2  0
 12 24  1  0
 24 25  2  0
 25 26  1  0
 26 27  2  0
 27 28  1  0
 28 29  2  0
 11  6  1  0
 23 13  1  0
 29 24  1  0
M  END
$$$$
453043
     RDKit          2D

 25 26  0  0  0  0  0  0  0  0999 V2000
    6.0000   -2.5981    0.0000 O   0  0  0  0  0  0  0  0  0  0  0  0
    5.2500   -1.2990    0.0000 S   0  0  0  0  0  0  0  0  0  0  0  0
    6.0000    0.0000    0.0000 O   0  0  0  0  0  0  0  0  0  0  0  0
    3.7500   -1.2990    0.0000 C   0  0  0  0  0  0  0  0  0  0  0  0
    3.0000    0.0000    0.0000 N   0  0  0  0  0  0  0  0  0  0  0  0
    1.5000    0.0000    0.0000 C   0  0  0  0  0  0  0  0  0  0  0  0
    0.7500   -1.2990    0.0000 C   0  0  0  0  0  0  0  0  0  0  0  0
   -0.7500   -1.2990    0.0000 C   0  0  0  0  0  0  0  0  0  0  0  0
   -1.5000    0.0000    0.0000 C   0  0  0  0  0  0  0  0  0  0  0  0
   -0.7500    1.2990    0.0000 C   0  0  0  0  0  0  0  0  0  0  0  0
    0.7500    1.2990    0.0000 C   0  0  0  0  0  0  0  0  0  0  0  0
   -3.0000    0.0000    0.0000 S   0  0  0  0  0  0  0  0  0  0  0  0
   -3.0000    1.5000    0.0000 O   0  0  0  0  0  0  0  0  0  0  0  0
   -3.0000   -1.5000    0.0000 O   0  0  0  0  0  0  0  0  0  0  0  0
   -4.5000    0.0000    0.0000 C   0  0  0  0  0  0  0  0  0  0  0  0
   -5.2500    1.2990    0.0000 C   0  0  0  0  0  0  0  0  0  0  0  0
   -6.7500    1.2990    0.0000 C   0  0  0  0  0  0  0  0  0  0  0  0
   -7.5000    0.0000    0.0000 C   0  0  0  0  0  0  0  0  0  0  0  0
   -9.0000    0.0000    0.0000 N   0  0  0  0  0  0  0  0  0  0  0  0
   -9.7500    1.2990    0.0000 C   0  0  0  0  0  0  0  0  0  0  0  0
  -11.2500    1.2990    0.0000 S   0  0  0  0  0  0  0  0  0  0  0  0
  -12.0000    0.0000    0.0000 O   0  0  0  0  0  0  0  0  0  0  0  0
  -12.0000    2.5981    0.0000 O   0  0  0  0  0  0  0  0  0  0  0  0
   -6.7500   -1.2990    0.0000 C   0  0  0  0  0  0  0  0  0  0  0  0
   -5.2500   -1.2990    0.0000 C   0  0  0  0  0  0  0  0  0  0  0  0
  1  2  1  0
  2  3  2  0
  2  4  1  0
  4  5  1  0
  5  6  1  0
  6  7  2  0
  7  8  1  0
  8  9  2  0
  9 10  1  0
 10 11  2  0
  9 12  1  0
 12 13  2  0
 12 14  2  0
 12 15  1  0
 15 16  2  0
 16 17  1  0
 17 18  2  0
 18 19  1  0
 19 20  1  0
 20 21  1  0
 21 22  2  0
 21 23  1  0
 18 24  1  0
 24 25  2  0
 11  6  1  0
 25 15  1  0
M  END
$$$$
175106
     RDKit          2D

 30 33  0  0  0  0  0  0  0  0999 V2000
    4.8107   -8.3323    0.0000 O   0  0  0  0  0  0  0  0  0  0  0  0
    3.3107   -8.3323    0.0000 C   0  0  0  0  0  0  0  0  0  0  0  0
    2.5607   -7.0333    0.0000 C   0  0  0  0  0  0  0  0  0  0  0  0
    3.3107   -5.7342    0.0000 C   0  0  0  0  0  0  0  0  0  0  0  0
    2.5607   -4.4352    0.0000 C   0  0  0  0  0  0  0  0  0  0  0  0
    2.9489   -2.9863    0.0000 C   0  0  0  0  0  0  0  0  0  0  0  0
    1.5000   -2.5981    0.0000 N   0  0  0  0  0  0  0  0  0  0  0  0
    1.1118   -4.0470    0.0000 C   0  0  0  0  0  0  0  0  0  0  0  0
   -0.1873   -4.7970    0.0000 O   0  0  0  0  0  0  0  0  0  0  0  0
    0.7500   -1.2990    0.0000 C   0  0  0  0  0  0  0  0  0  0  0  0
    1.5000    0.0000    0.0000 C   0  0  0  0  0  0  0  0  0  0  0  0
    0.7500    1.2990    0.0000 C   0  0  0  0  0  0  0  0  0  0  0  0
   -0.7500    1.2990    0.0000 C   0  0  0  0  0  0  0  0  0  0  0  0
   -1.5000    2.5981    0.0000 F   0  0  0  0  0  0  0  0  0  0  0  0
   -1.5000    0.0000    0.0000 C   0  0  0  0  0  0  0  0  0  0  0  0
   -0.7500   -1.2990    0.0000 C   0  0  0  0  0  0  0  0  0  0  0  0
    4.2479   -2.2363    0.0000 C   0  0  0  0  0  0  0  0  0  0  0  0
    5.5470   -2.9863    0.0000 C   0  0  0  0  0  0  0  0  0  0  0  0
    6.8460   -2.2363    0.0000 C   0  0  0  0  0  0  0  0  0  0  0  0
    6.8460   -0.7363    0.0000 C   0  0  0  0  0  0  0  0  0  0  0  0
    8.1450    0.0137    0.0000 O   0  0  0  0  0  0  0  0  0  0  0  0
    5.5470    0.0137    0.0000 C   0  0  0  0  0  0  0  0  0  0  0  0
    4.2479   -0.7363    0.0000 C   0  0  0  0  0  0  0  0  0  0  0  0
    2.5607   -9.6313    0.0000 C   0  0  0  0  0  0  0  0  0  0  0  0
    1.0607   -9.6313    0.0000 C   0  0  0  0  0  0  0  0  0  0  0  0
    0.3107  -10.9304    0.0000 C   0  0  0  0  0  0  0  0  0  0  0  0
    1.0607  -12.2294    0.0000 C   0  0  0  0  0  0  0  0  0  0  0  0
    0.3107  -13.5285    0.0000 F   0  0  0  0  0  0  0  0  0  0  0  0
    2.5607  -12.2294    0.0000 C   0  0  0  0  0  0  0  0  0  0  0  0
    3.3107  -10.9304    0.0000 C   0  0  0  0  0  0  0  0  0  0  0  0
  2  1  1  6
  2  3  1  0
  3  4  1  0
  5  4  1  1
  5  6  1  0
  6  7  1  0
  7  8  1  0
  8  9  2  0
  7 10  1  0
 10 11  2  0
 11 12  1  0
 12 13  2  0
 13 14  1  0
 13 15  1  0
 15 16  2  0
  6 17  1  6
 17 18  2  0
 18 19  1  0
 19 20  2  0
 20 21  1  0
 20 22  1  0
 22 23  2  0
  2 24  1  0
 24 25  2  0
 25 26  1  0
 26 27  2  0
 27 28  1  0
 27 29  1  0
 29 30  2  0
  8  5  1  0
 16 10  1  0
 23 17  1  0
 30 24  1  0
M  END
$$$$
674812
     RDKit          2D

 10  9  0  0  0  0  0  0  0  0999 V2000
   -0.0000   -1.5000    0.0000 O   0  0  0  0  0  0  0  0  0  0  0  0
    0.0000    0.0000    0.0000 C   0  0  0  0  0  0  0  0  0  0  0  0
    1.2990    0.7500    0.0000 C   0  0  0  0  0  0  0  0  0  0  0  0
    1.2990    2.2500    0.0000 O   0  0  0  0  0  0  0  0  0  0  0  0
    2.5981   -0.0000    0.0000 C   0  0  0  0  0  0  0  0  0  0  0  0
    2.5981   -1.5000    0.0000 O   0  0  0  0  0  0  0  0  0  0  0  0
    3.8971    0.7500    0.0000 O   0  0  0  0  0  0  0  0  0  0  0  0
   -1.2990    0.7500    0.0000 C   0  0  0  0  0  0  0  0  0  0  0  0
   -1.2990    2.2500    0.0000 O   0  0  0  0  0  0  0  0  0  0  0  0
   -2.5981    0.0000    0.0000 O   0  0  0  0  0  0  0  0  0  0  0  0
  2  1  1  6
  2  3  1  0
  3  4  1  6
  3  5  1  0
  5  6  2  0
  5  7  1  0
  2  8  1  0
  8  9  2  0
  8 10  1  0
M  END
$$$$
674611
     RDKit          2D

 10 11  0  0  0  0  0  0  0  0999 V2000
    2.7760    0.0000    0.0000 O   0  0  0  0  0  0  0  0  0  0  0  0
    1.2760    0.0000    0.0000 C   0  0  0  0  0  0  0  0  0  0  0  0
    0.3943    1.2135    0.0000 C   0  0  0  0  0  0  0  0  0  0  0  0
   -1.0323    0.7500    0.0000 O   0  0  0  0  0  0  0  0  0  0  0  0
   -1.0323   -0.7500    0.0000 C   0  0  0  0  0  0  0  0  0  0  0  0
   -1.9140   -1.9635    0.0000 C   0  0  0  0  0  0  0  0  0  0  0  0
   -3.4140   -1.9635    0.0000 O   0  0  0  0  0  0  0  0  0  0  0  0
   -1.0323   -3.1771    0.0000 C   0  0  0  0  0  0  0  0  0  0  0  0
    0.3943   -2.7135    0.0000 O   0  0  0  0  0  0  0  0  0  0  0  0
    0.3943   -1.2135    0.0000 C   0  0  0  0  0  0  0  0  0  0  0  0
  2  1  1  1
  2  3  1  0
  3  4  1  0
  5  4  1  1
  5  6  1  0
  6  7  1  6
  6  8  1  0
  8  9  1  0
 10  9  1  1
 10  2  1  0
 10  5  1  0
M  END
$$$$
675704
     RDKit          2D

 31 34  0  0  0  0  0  0  0  0999 V2000
   -3.0000  -10.3923    0.0000 O   0  0  0  0  0  0  0  0  0  0  0  0
   -1.5000  -10.3923    0.0000 C   0  0  0  0  0  0  0  0  0  0  0  0
   -0.7500   -9.0933    0.0000 C   0  0  0  0  0  0  0  0  0  0  0  0
   -1.5000   -7.7942    0.0000 C   0  0  0  0  0  0  0  0  0  0  0  0
   -3.0000   -7.7942    0.0000 O   0  0  0  0  0  0  0  0  0  0  0  0
   -0.7500   -6.4952    0.0000 C   0  0  0  0  0  0  0  0  0  0  0  0
   -1.5000   -5.1962    0.0000 C   0  0  0  0  0  0  0  0  0  0  0  0
   -0.7500   -3.8971    0.0000 C   0  0  0  0  0  0  0  0  0  0  0  0
    0.7500   -3.8971    0.0000 C   0  0  0  0  0  0  0  0  0  0  0  0
    1.5000   -2.5981    0.0000 N   0  0  0  0  0  0  0  0  0  0  0  0
    0.7500   -1.2990    0.0000 C   0  0  0  0  0  0  0  0  0  0  0  0
    1.5000    0.0000    0.0000 C   0  0  0  0  0  0  0  0  0  0  0  0
    0.7500    1.2990    0.0000 C   0  0  0  0  0  0  0  0  0  0  0  0
   -0.7500    1.2990    0.0000 C   0  0  0  0  0  0  0  0  0  0  0  0
   -1.5000    0.0000    0.0000 C   0  0  0  0  0  0  0  0  0  0  0  0
   -0.7500   -1.2990    0.0000 C   0  0  0  0  0  0  0  0  0  0  0  0
   -1.5000   -2.5981    0.0000 C   0  0  0  0  0  0  0  0  0  0  0  0
   -3.0000   -2.5981    0.0000 C   0  0  0  0  0  0  0  0  0  0  0  0
   -3.7500   -1.2990    0.0000 C   0  0  0  0  0  0  0  0  0  0  0  0
   -5.2500   -1.2990    0.0000 C   0  0  0  0  0  0  0  0  0  0  0  0
   -6.0000   -2.5981    0.0000 C   0  0  0  0  0  0  0  0  0  0  0  0
   -7.5000   -2.5981    0.0000 F   0  0  0  0  0  0  0  0  0  0  0  0
   -5.2500   -3.8971    0.0000 C   0  0  0  0  0  0  0  0  0  0  0  0
   -3.7500   -3.8971    0.0000 C   0  0  0  0  0  0  0  0  0  0  0  0
    1.5000   -5.1962    0.0000 C   0  0  0  0  0  0  0  0  0  0  0  0
    2.7990   -5.9462    0.0000 C   0  0  0  0  0  0  0  0  0  0  0  0
    1.5000   -6.6962    0.0000 C   0  0  0  0  0  0  0  0  0  0  0  0
   -0.7500  -11.6913    0.0000 C   0  0  0  0  0  0  0  0  0  0  0  0
   -1.5000  -12.9904    0.0000 C   0  0  0  0  0  0  0  0  0  0  0  0
   -3.0000  -12.9904    0.0000 O   0  0  0  0  0  0  0  0  0  0  0  0
   -0.7500  -14.2894    0.0000 O   0  0  0  0  0  0  0  0  0  0  0  0
  2  1  1  6
  2  3  1  0
  3  4  1  0
  4  5  1  6
  4  6  1  0
  6  7  2  0
  7  8  1  0
  8  9  2  0
  9 10  1  0
 10 11  2  0
 11 12  1  0
 12 13  2  0
 13 14  1  0
 14 15  2  0
 15 16  1  0
 16 17  2  0
 17 18  1  0
 18 19  2  0
 19 20  1  0
 20 21  2  0
 21 22  1  0
 21 23  1  0
 23 24  2  0
  9 25  1  0
 25 26  1  0
 26 27  1  0
  2 28  1  0
 28 29  1  0
 29 30  2  0
 29 31  1  0
 17  8  1  0
 16 11  1  0
 24 18  1  0
 27 25  1  0
M  END
$$$$
263453
     RDKit          2D

 13 14  0  0  0  0  0  0  0  0999 V2000
    2.7760    0.0000    0.0000 O   0  0  0  0  0  0  0  0  0  0  0  0
    1.2760    0.0000    0.0000 C   0  0  0  0  0  0  0  0  0  0  0  0
    0.3943    1.2135    0.0000 C   0  0  0  0  0  0  0  0  0  0  0  0
   -1.0323    0.7500    0.0000 O   0  0  0  0  0  0  0  0  0  0  0  0
   -1.0323   -0.7500    0.0000 C   0  0  0  0  0  0  0  0  0  0  0  0
   -1.9140   -1.9635    0.0000 C   0  0  0  0  0  0  0  0  0  0  0  0
   -1.0323   -3.1771    0.0000 C   0  0  0  0  0  0  0  0  0  0  0  0
    0.3943   -2.7135    0.0000 O   0  0  0  0  0  0  0  0  0  0  0  0
    0.3943   -1.2135    0.0000 C   0  0  0  0  0  0  0  0  0  0  0  0
   -3.4140   -1.9635    0.0000 O   0  0  0  0  0  0  0  0  0  0  0  0
   -4.1640   -0.6645    0.0000 N   0  0  0  0  0  4  0  0  0  0  0  0
   -3.4140    0.6346    0.0000 O   0  0  0  0  0  0  0  0  0  0  0  0
   -5.6640   -0.6645    0.0000 O   0  0  0  0  0  1  0  0  0  0  0  0
  2  1  1  6
  2  3  1  0
  3  4  1  0
  5  4  1  1
  5  6  1  0
  6  7  1  0
  7  8  1  0
  9  8  1  1
  6 10  1  1
 10 11  1  0
 11 12  2  0
 11 13  1  0
  9  2  1  0
  9  5  1  0
M  CHG  2  11   1  13  -1
M  END
$$$$
364693
     RDKit          2D

 10 11  0  0  0  0  0  0  0  0999 V2000
   -3.5736    1.2902    0.0000 S   0  0  0  0  0  0  0  0  0  0  0  0
   -2.1470    1.7537    0.0000 C   0  0  0  0  0  0  0  0  0  0  0  0
   -1.8351    3.2209    0.0000 N   0  0  0  0  0  0  0  0  0  0  0  0
   -0.4086    3.6844    0.0000 C   0  0  0  0  0  0  0  0  0  0  0  0
    0.7062    2.6807    0.0000 N   0  0  0  0  0  0  0  0  0  0  0  0
    0.3943    1.2135    0.0000 C   0  0  0  0  0  0  0  0  0  0  0  0
    1.2760    0.0000    0.0000 N   0  0  0  0  0  0  0  0  0  0  0  0
    0.3943   -1.2135    0.0000 C   0  0  0  0  0  0  0  0  0  0  0  0
   -1.0323   -0.7500    0.0000 N   0  0  0  0  0  0  0  0  0  0  0  0
   -1.0323    0.7500    0.0000 C   0  0  0  0  0  0  0  0  0  0  0  0
  1  2  1  0
  2  3  2  0
  3  4  1  0
  4  5  2  0
  5  6  1  0
  6  7  1  0
  7  8  2  0
  8  9  1  0
  9 10  1  0
 10  2  1  0
 10  6  2  0
M  END
$$$$
1378167
     RDKit          2D

  6  4  0  0  0  0  0  0  0  0999 V2000
    3.5981    0.0000    0.0000 Ba  0  0  0  0  0 15  0  0  0  0  0  0
    0.0000    0.0000    0.0000 O   0  0  0  0  0  1  0  0  0  0  0  0
    1.2990    0.7500    0.0000 S   0  0  0  0  0  0  0  0  0  0  0  0
    2.0490   -0.5490    0.0000 O   0  0  0  0  0  0  0  0  0  0  0  0
    0.5490    2.0490    0.0000 O   0  0  0  0  0  0  0  0  0  0  0  0
    2.5981    1.5000    0.0000 O   0  0  0  0  0  1  0  0  0  0  0  0
  2  3  1  0
  3  4  2  0
  3  5  2  0
  3  6  1  0
M  CHG  3   1   2   2  -1   6  -1
M  END
$$$$
1383722
     RDKit          2D

 35 33  0  0  0  0  0  0  0  0999 V2000
   12.7760    0.0000    0.0000 Bi  0  0  0  0  0 15  0  0  0  0  0  0
    8.0260   -6.4952    0.0000 C   0  0  0  0  0  0  0  0  0  0  0  0
    7.2760   -5.1962    0.0000 N   0  0  0  0  0  0  0  0  0  0  0  0
    8.0260   -3.8971    0.0000 C   0  0  0  0  0  0  0  0  0  0  0  0
    9.5260   -3.8971    0.0000 C   0  0  0  0  0  0  0  0  0  0  0  0
   10.2760   -5.1962    0.0000 N   0  0  0  0  0  4  0  0  0  0  0  0
    9.5260   -6.4952    0.0000 O   0  0  0  0  0  0  0  0  0  0  0  0
   11.7760   -5.1962    0.0000 O   0  0  0  0  0  1  0  0  0  0  0  0
    7.2760   -2.5981    0.0000 N   0  0  0  0  0  0  0  0  0  0  0  0
    5.7760   -2.5981    0.0000 C   0  0  0  0  0  0  0  0  0  0  0  0
    5.0260   -1.2990    0.0000 C   0  0  0  0  0  0  0  0  0  0  0  0
    3.5260   -1.2990    0.0000 S   0  0  0  0  0  0  0  0  0  0  0  0
    2.7760    0.0000    0.0000 C   0  0  0  0  0  0  0  0  0  0  0  0
    1.2760    0.0000    0.0000 C   0  0  0  0  0  0  0  0  0  0  0  0
    0.3943    1.2135    0.0000 O   0  0  0  0  0  0  0  0  0  0  0  0
   -1.0323    0.7500    0.0000 C   0  0  0  0  0  0  0  0  0  0  0  0
   -2.2458    1.6317    0.0000 C   0  0  0  0  0  0  0  0  0  0  0  0
   -2.0890    3.1235    0.0000 N   0  0  0  0  0  0  0  0  0  0  0  0
   -3.3025    4.0051    0.0000 C   0  0  0  0  0  0  0  0  0  0  0  0
   -0.7187    3.7336    0.0000 C   0  0  0  0  0  0  0  0  0  0  0  0
   -1.0323   -0.7500    0.0000 C   0  0  0  0  0  0  0  0  0  0  0  0
    0.3943   -1.2135    0.0000 C   0  0  0  0  0  0  0  0  0  0  0  0
    0.5490    8.9023    0.0000 O   0  0  0  0  0  0  0  0  0  0  0  0
    1.2990    7.6032    0.0000 C   0  0  0  0  0  0  0  0  0  0  0  0
    0.0000    6.8532    0.0000 C   0  0  0  0  0  0  0  0  0  0  0  0
   -1.2990    7.6032    0.0000 C   0  0  0  0  0  0  0  0  0  0  0  0
   -1.2990    9.1032    0.0000 O   0  0  0  0  0  0  0  0  0  0  0  0
   -2.5981    6.8532    0.0000 O   0  0  0  0  0  1  0  0  0  0  0  0
    2.5981    8.3532    0.0000 C   0  0  0  0  0  0  0  0  0  0  0  0
    2.5981    9.8532    0.0000 C   0  0  0  0  0  0  0  0  0  0  0  0
    1.2990   10.6032    0.0000 O   0  0  0  0  0  0  0  0  0  0  0  0
    3.8971   10.6032    0.0000 O   0  0  0  0  0  1  0  0  0  0  0  0
    2.0490    6.3042    0.0000 C   0  0  0  0  0  0  0  0  0  0  0  0
    1.2990    5.0051    0.0000 O   0  0  0  0  0  0  0  0  0  0  0  0
    3.5490    6.3042    0.0000 O   0  0  0  0  0  1  0  0  0  0  0  0
  2  3  1  0
  3  4  1  0
  4  5  2  3
  5  6  1  0
  6  7  2  0
  6  8  1  0
  4  9  1  0
  9 10  1  0
 10 11  1  0
 11 12  1  0
 12 13  1  0
 13 14  1  0
 14 15  1  0
 15 16  1  0
 16 17  1  0
 17 18  1  0
 18 19  1  0
 18 20  1  0
 16 21  2  0
 21 22  1  0
 23 24  1  0
 24 25  1  0
 25 26  1  0
 26 27  2  0
 26 28  1  0
 24 29  1  0
 29 30  1  0
 30 31  2  0
 30 32  1  0
 24 33  1  0
 33 34  2  0
 33 35  1  0
 22 14  2  0
M  CHG  6   1   3   6   1   8  -1  28  -1  32  -1  35  -1
M  END
$$$$
230999
     RDKit          2D

 28 29  0  0  0  0  0  0  0  0999 V2000
    0.0000    2.2990    0.0000 Br  0  0  0  0  0 15  0  0  0  0  0  0
    8.7990   -2.9462    0.0000 C   0  0  0  0  0  0  0  0  0  0  0  0
    7.5000   -3.6962    0.0000 C   0  0  0  0  0  0  0  0  0  0  0  0
    6.2010   -2.9462    0.0000 C   0  0  0  0  0  0  0  0  0  0  0  0
    7.5000   -5.1962    0.0000 N   0  0  0  0  0  4  0  0  0  0  0  0
    9.0000   -5.1962    0.0000 C   0  0  0  0  0  0  0  0  0  0  0  0
    6.0000   -5.1962    0.0000 C   0  0  0  0  0  0  0  0  0  0  0  0
    5.2500   -3.8971    0.0000 C   0  0  0  0  0  0  0  0  0  0  0  0
    3.7500   -3.8971    0.0000 O   0  0  0  0  0  0  0  0  0  0  0  0
    3.0000   -2.5981    0.0000 C   0  0  0  0  0  0  0  0  0  0  0  0
    3.7500   -1.2990    0.0000 O   0  0  0  0  0  0  0  0  0  0  0  0
    1.5000   -2.5981    0.0000 C   0  0  0  0  0  0  0  0  0  0  0  0
    0.7500   -1.2990    0.0000 C   0  0  0  0  0  0  0  0  0  0  0  0
    1.5000    0.0000    0.0000 C   0  0  0  0  0  0  0  0  0  0  0  0
    0.7500    1.2990    0.0000 C   0  0  0  0  0  0  0  0  0  0  0  0
   -0.7500    1.2990    0.0000 C   0  0  0  0  0  0  0  0  0  0  0  0
   -1.5000    0.0000    0.0000 C   0  0  0  0  0  0  0  0  0  0  0  0
   -0.7500   -1.2990    0.0000 C   0  0  0  0  0  0  0  0  0  0  0  0
   -1.5000   -2.5981    0.0000 O   0  0  0  0  0  0  0  0  0  0  0  0
   -0.7500   -3.8971    0.0000 C   0  0  0  0  0  0  0  0  0  0  0  0
   -1.5000   -5.1962    0.0000 C   0  0  0  0  0  0  0  0  0  0  0  0
   -0.7500   -6.4952    0.0000 C   0  0  0  0  0  0  0  0  0  0  0  0
    0.7500   -6.4952    0.0000 C   0  0  0  0  0  0  0  0  0  0  0  0
    1.5000   -5.1962    0.0000 C   0  0  0  0  0  0  0  0  0  0  0  0
    0.7500   -3.8971    0.0000 C   0  0  0  0  0  0  0  0  0  0  0  0
    7.5000   -6.6962    0.0000 C   0  0  0  0  0  0  0  0  0  0  0  0
    8.7990   -7.4462    0.0000 C   0  0  0  0  0  0  0  0  0  0  0  0
    6.2010   -7.4462    0.0000 C   0  0  0  0  0  0  0  0  0  0  0  0
  2  3  1  0
  3  4  1  0
  3  5  1  0
  5  6  1  0
  5  7  1  0
  7  8  1  0
  8  9  1  0
  9 10  1  0
 10 11  2  0
 10 12  1  0
 12 13  1  0
 13 14  2  0
 14 15  1  0
 15 16  2  0
 16 17  1  0
 17 18  2  0
 18 19  1  0
 19 20  1  0
 20 21  2  0
 21 22  1  0
 22 23  2  0
 23 24  1  0
 24 25  2  0
  5 26  1  0
 26 27  1  0
 26 28  1  0
 25 12  1  0
 18 13  1  0
 25 20  1  0
M  CHG  2   1  -1   5   1
M  END
$$$$
453573
     RDKit          2D

 21 21  0  0  0  0  0  0  0  0999 V2000
    2.2760    0.0000    0.0000 Br  0  0  0  0  0 15  0  0  0  0  0  0
   -5.2592    8.7438    0.0000 C   0  0  0  0  0  0  0  0  0  0  0  0
   -5.4160    7.2521    0.0000 C   0  0  0  0  0  0  0  0  0  0  0  0
   -4.2025    6.3704    0.0000 C   0  0  0  0  0  0  0  0  0  0  0  0
   -4.3593    4.8786    0.0000 C   0  0  0  0  0  0  0  0  0  0  0  0
   -5.7296    4.2685    0.0000 C   0  0  0  0  0  0  0  0  0  0  0  0
   -6.9431    5.1502    0.0000 C   0  0  0  0  0  0  0  0  0  0  0  0
   -8.3134    4.5401    0.0000 C   0  0  0  0  0  0  0  0  0  0  0  0
   -3.1458    3.9969    0.0000 C   0  0  0  0  0  0  0  0  0  0  0  0
   -1.7754    4.6070    0.0000 O   0  0  0  0  0  0  0  0  0  0  0  0
   -3.3025    2.5051    0.0000 O   0  0  0  0  0  0  0  0  0  0  0  0
   -2.0890    1.6235    0.0000 C   0  0  0  0  0  0  0  0  0  0  0  0
   -0.7187    2.2336    0.0000 C   0  0  0  0  0  0  0  0  0  0  0  0
    0.3943    1.2135    0.0000 C   0  0  0  0  0  0  0  0  0  0  0  0
    1.2760    0.0000    0.0000 C   0  0  0  0  0  0  0  0  0  0  0  0
    0.3943   -1.2135    0.0000 C   0  0  0  0  0  0  0  0  0  0  0  0
   -1.0323   -0.7500    0.0000 C   0  0  0  0  0  0  0  0  0  0  0  0
   -2.2458    0.1317    0.0000 C   0  0  0  0  0  0  0  0  0  0  0  0
   -1.0323    0.7500    0.0000 N   0  0  0  0  0  4  0  0  0  0  0  0
   -2.5177    0.9588    0.0000 C   0  0  0  0  0  0  0  0  0  0  0  0
   -1.3818    1.4665    0.0000 C   0  0  0  0  0  0  0  0  0  0  0  0
  2  3  1  0
  3  4  1  0
  4  5  1  0
  5  6  1  0
  6  7  1  0
  7  8  1  0
  5  9  1  0
  9 10  2  0
  9 11  1  0
 12 11  1  1
 12 13  1  0
 14 13  1  1
 14 15  1  0
 15 16  1  0
 17 16  1  1
 17 18  1  0
 17 19  1  0
 19 20  1  0
 19 21  1  0
 18 12  1  0
 19 14  1  0
M  CHG  2   1  -1  19   1
M  END
$$$$
674857
     RDKit          2D

 26 26  0  0  0  0  0  0  0  0999 V2000
    5.5000    0.0000    0.0000 Br  0  0  0  0  0 15  0  0  0  0  0  0
   -4.6471   -6.5490    0.0000 C   0  0  0  0  0  0  0  0  0  0  0  0
   -3.1471   -6.5490    0.0000 C   0  0  0  0  0  0  0  0  0  0  0  0
   -2.3971   -7.8481    0.0000 N   0  0  0  0  0  4  0  0  0  0  0  0
   -1.6471   -9.1471    0.0000 C   0  0  0  0  0  0  0  0  0  0  0  0
   -3.6962   -8.5981    0.0000 C   0  0  0  0  0  0  0  0  0  0  0  0
   -4.9952   -7.8481    0.0000 C   0  0  0  0  0  0  0  0  0  0  0  0
   -1.0981   -7.0981    0.0000 C   0  0  0  0  0  0  0  0  0  0  0  0
   -1.0981   -5.5981    0.0000 C   0  0  0  0  0  0  0  0  0  0  0  0
    0.2010   -4.8481    0.0000 O   0  0  0  0  0  0  0  0  0  0  0  0
    0.2010   -3.3481    0.0000 C   0  0  0  0  0  0  0  0  0  0  0  0
   -1.0981   -2.5981    0.0000 O   0  0  0  0  0  0  0  0  0  0  0  0
    1.5000   -2.5981    0.0000 C   0  0  0  0  0  0  0  0  0  0  0  0
    2.7990   -1.8481    0.0000 O   0  0  0  0  0  0  0  0  0  0  0  0
    0.7500   -1.2990    0.0000 C   0  0  0  0  0  0  0  0  0  0  0  0
    1.5000    0.0000    0.0000 C   0  0  0  0  0  0  0  0  0  0  0  0
    0.7500    1.2990    0.0000 C   0  0  0  0  0  0  0  0  0  0  0  0
   -0.7500    1.2990    0.0000 C   0  0  0  0  0  0  0  0  0  0  0  0
   -1.5000    0.0000    0.0000 C   0  0  0  0  0  0  0  0  0  0  0  0
   -0.7500   -1.2990    0.0000 C   0  0  0  0  0  0  0  0  0  0  0  0
    2.2500   -3.8971    0.0000 C   0  0  0  0  0  0  0  0  0  0  0  0
    1.5000   -5.1962    0.0000 C   0  0  0  0  0  0  0  0  0  0  0  0
    2.2500   -6.4952    0.0000 C   0  0  0  0  0  0  0  0  0  0  0  0
    3.7500   -6.4952    0.0000 C   0  0  0  0  0  0  0  0  0  0  0  0
    4.5000   -5.1962    0.0000 C   0  0  0  0  0  0  0  0  0  0  0  0
    3.7500   -3.8971    0.0000 C   0  0  0  0  0  0  0  0  0  0  0  0
  2  3  1  0
  3  4  1  0
  4  5  1  0
  4  6  1  0
  6  7  1  0
  4  8  1  0
  8  9  1  0
  9 10  1  0
 10 11  1  0
 11 12  2  0
 11 13  1  0
 13 14  1  0
 13 15  1  0
 15 16  1  0
 16 17  1  0
 17 18  1  0
 18 19  1  0
 19 20  1  0
 13 21  1  0
 21 22  2  0
 22 23  1  0
 23 24  2  0
 24 25  1  0
 25 26  2  0
 20 15  1  0
 26 21  1  0
M  CHG  2   1  -1   4   1
M  END
$$$$
674939
     RDKit          2D

 26 27  0  0  0  0  0  0  0  0999 V2000
    0.0000    2.2990    0.0000 Br  0  0  0  0  0 15  0  0  0  0  0  0
    8.7990   -2.9462    0.0000 C   0  0  0  0  0  0  0  0  0  0  0  0
    7.5000   -3.6962    0.0000 C   0  0  0  0  0  0  0  0  0  0  0  0
    7.5000   -5.1962    0.0000 N   0  0  0  0  0  4  0  0  0  0  0  0
    7.5000   -6.6962    0.0000 C   0  0  0  0  0  0  0  0  0  0  0  0
    9.0000   -5.1962    0.0000 C   0  0  0  0  0  0  0  0  0  0  0  0
    9.7500   -3.8971    0.0000 C   0  0  0  0  0  0  0  0  0  0  0  0
    6.0000   -5.1962    0.0000 C   0  0  0  0  0  0  0  0  0  0  0  0
    5.2500   -3.8971    0.0000 C   0  0  0  0  0  0  0  0  0  0  0  0
    3.7500   -3.8971    0.0000 O   0  0  0  0  0  0  0  0  0  0  0  0
    3.0000   -2.5981    0.0000 C   0  0  0  0  0  0  0  0  0  0  0  0
    3.7500   -1.2990    0.0000 O   0  0  0  0  0  0  0  0  0  0  0  0
    1.5000   -2.5981    0.0000 C   0  0  0  0  0  0  0  0  0  0  0  0
    0.7500   -1.2990    0.0000 C   0  0  0  0  0  0  0  0  0  0  0  0
    1.5000    0.0000    0.0000 C   0  0  0  0  0  0  0  0  0  0  0  0
    0.7500    1.2990    0.0000 C   0  0  0  0  0  0  0  0  0  0  0  0
   -0.7500    1.2990    0.0000 C   0  0  0  0  0  0  0  0  0  0  0  0
   -1.5000    0.0000    0.0000 C   0  0  0  0  0  0  0  0  0  0  0  0
   -0.7500   -1.2990    0.0000 C   0  0  0  0  0  0  0  0  0  0  0  0
   -1.5000   -2.5981    0.0000 O   0  0  0  0  0  0  0  0  0  0  0  0
   -0.7500   -3.8971    0.0000 C   0  0  0  0  0  0  0  0  0  0  0  0
   -1.5000   -5.1962    0.0000 C   0  0  0  0  0  0  0  0  0  0  0  0
   -0.7500   -6.4952    0.0000 C   0  0  0  0  0  0  0  0  0  0  0  0
    0.7500   -6.4952    0.0000 C   0  0  0  0  0  0  0  0  0  0  0  0
    1.5000   -5.1962    0.0000 C   0  0  0  0  0  0  0  0  0  0  0  0
    0.7500   -3.8971    0.0000 C   0  0  0  0  0  0  0  0  0  0  0  0
  2  3  1  0
  3  4  1  0
  4  5  1  0
  4  6  1  0
  6  7  1  0
  4  8  1  0
  8  9  1  0
  9 10  1  0
 10 11  1  0
 11 12  2  0
 11 13  1  0
 13 14  1  0
 14 15  2  0
 15 16  1  0
 16 17  2  0
 17 18  1  0
 18 19  2  0
 19 20  1  0
 20 21  1  0
 21 22  2  0
 22 23  1  0
 23 24  2  0
 24 25  1  0
 25 26  2  0
 26 13  1  0
 19 14  1  0
 26 21  1  0
M  CHG  2   1  -1   4   1
M  END
$$$$
54149
     RDKit          2D

 14 13  0  0  0  0  0  0  0  0999 V2000
    0.0000    3.5981    0.0000 Br  0  0  0  0  0 15  0  0  0  0  0  0
    6.0000   -2.5981    0.0000 C   0  0  0  0  0  0  0  0  0  0  0  0
    5.2500   -1.2990    0.0000 N   0  0  0  0  0  0  0  0  0  0  0  0
    6.0000    0.0000    0.0000 C   0  0  0  0  0  0  0  0  0  0  0  0
    3.7500   -1.2990    0.0000 C   0  0  0  0  0  0  0  0  0  0  0  0
    3.0000   -2.5981    0.0000 O   0  0  0  0  0  0  0  0  0  0  0  0
    3.0000    0.0000    0.0000 O   0  0  0  0  0  0  0  0  0  0  0  0
    1.5000    0.0000    0.0000 C   0  0  0  0  0  0  0  0  0  0  0  0
    0.7500   -1.2990    0.0000 C   0  0  0  0  0  0  0  0  0  0  0  0
   -0.7500   -1.2990    0.0000 C   0  0  0  0  0  0  0  0  0  0  0  0
   -1.5000    0.0000    0.0000 C   0  0  0  0  0  0  0  0  0  0  0  0
   -0.7500    1.2990    0.0000 N   0  0  0  0  0  4  0  0  0  0  0  0
   -1.5000    2.5981    0.0000 C   0  0  0  0  0  0  0  0  0  0  0  0
    0.7500    1.2990    0.0000 C   0  0  0  0  0  0  0  0  0  0  0  0
  2  3  1  0
  3  4  1  0
  3  5  1  0
  5  6  2  0
  5  7  1  0
  7  8  1  0
  8  9  2  0
  9 10  1  0
 10 11  2  0
 11 12  1  0
 12 13  1  0
 12 14  2  0
 14  8  1  0
M  CHG  2   1  -1  12   1
M  END
$$$$
674978
     RDKit          2D

 24 25  0  0  0  0  0  0  0  0999 V2000
    0.0000    2.2990    0.0000 Br  0  0  0  0  0 15  0  0  0  0  0  0
    8.9847   -0.4618    0.0000 C   0  0  0  0  0  0  0  0  0  0  0  0
    7.7711   -1.3435    0.0000 N   0  0  0  0  0  4  0  0  0  0  0  0
    8.7748   -2.4582    0.0000 C   0  0  0  0  0  0  0  0  0  0  0  0
    7.0211   -0.0444    0.0000 C   0  0  0  0  0  0  0  0  0  0  0  0
    5.5539   -0.3563    0.0000 C   0  0  0  0  0  0  0  0  0  0  0  0
    5.3971   -1.8481    0.0000 C   0  0  0  0  0  0  0  0  0  0  0  0
    6.7674   -2.4582    0.0000 C   0  0  0  0  0  0  0  0  0  0  0  0
    4.0981   -2.5981    0.0000 O   0  0  0  0  0  0  0  0  0  0  0  0
    2.7990   -1.8481    0.0000 C   0  0  0  0  0  0  0  0  0  0  0  0
    2.7990   -0.3481    0.0000 O   0  0  0  0  0  0  0  0  0  0  0  0
    1.5000   -2.5981    0.0000 C   0  0  0  0  0  0  0  0  0  0  0  0
    0.2010   -3.3481    0.0000 O   0  0  0  0  0  0  0  0  0  0  0  0
    2.2500   -3.8971    0.0000 C   0  0  0  0  0  0  0  0  0  0  0  0
    3.7418   -4.0539    0.0000 C   0  0  0  0  0  0  0  0  0  0  0  0
    4.0537   -5.5211    0.0000 C   0  0  0  0  0  0  0  0  0  0  0  0
    2.7546   -6.2711    0.0000 C   0  0  0  0  0  0  0  0  0  0  0  0
    1.6399   -5.2674    0.0000 C   0  0  0  0  0  0  0  0  0  0  0  0
    0.7500   -1.2990    0.0000 C   0  0  0  0  0  0  0  0  0  0  0  0
    1.5000    0.0000    0.0000 C   0  0  0  0  0  0  0  0  0  0  0  0
    0.7500    1.2990    0.0000 C   0  0  0  0  0  0  0  0  0  0  0  0
   -0.7500    1.2990    0.0000 C   0  0  0  0  0  0  0  0  0  0  0  0
   -1.5000    0.0000    0.0000 C   0  0  0  0  0  0  0  0  0  0  0  0
   -0.7500   -1.2990    0.0000 C   0  0  0  0  0  0  0  0  0  0  0  0
  2  3  1  0
  3  4  1  0
  3  5  1  0
  5  6  1  0
  6  7  1  0
  7  8  1  0
  7  9  1  0
  9 10  1  0
 10 11  2  0
 10 12  1  0
 12 13  1  0
 12 14  1  0
 14 15  1  0
 15 16  1  0
 16 17  1  0
 17 18  1  0
 12 19  1  0
 19 20  2  0
 20 21  1  0
 21 22  2  0
 22 23  1  0
 23 24  2  0
  8  3  1  0
 18 14  1  0
 24 19  1  0
M  CHG  2   1  -1   3   1
M  END
$$$$
554127
     RDKit          2D

 26 27  0  0  0  0  0  0  0  0999 V2000
    3.6491    0.0000    0.0000 Br  0  0  0  0  0 15  0  0  0  0  0  0
    2.6491    0.9642    0.0000 C   0  0  0  0  0  0  0  0  0  0  0  0
    1.5000    0.0000    0.0000 N   0  0  0  0  0  4  0  0  0  0  0  0
    2.6491   -0.9642    0.0000 C   0  0  0  0  0  0  0  0  0  0  0  0
    0.7500   -1.2990    0.0000 C   0  0  0  0  0  0  0  0  0  0  0  0
   -0.7500   -1.2990    0.0000 C   0  0  0  0  0  0  0  0  0  0  0  0
   -1.5000    0.0000    0.0000 C   0  0  0  0  0  0  0  0  0  0  0  0
   -0.7500    1.2990    0.0000 C   0  0  0  0  0  0  0  0  0  0  0  0
    0.7500    1.2990    0.0000 C   0  0  0  0  0  0  0  0  0  0  0  0
   -1.5000    2.5981    0.0000 O   0  0  0  0  0  0  0  0  0  0  0  0
   -0.7500    3.8971    0.0000 C   0  0  0  0  0  0  0  0  0  0  0  0
    0.7500    3.8971    0.0000 O   0  0  0  0  0  0  0  0  0  0  0  0
   -1.5000    5.1962    0.0000 C   0  0  0  0  0  0  0  0  0  0  0  0
   -2.2500    6.4952    0.0000 O   0  0  0  0  0  0  0  0  0  0  0  0
   -2.7990    4.4462    0.0000 C   0  0  0  0  0  0  0  0  0  0  0  0
   -4.0981    5.1962    0.0000 C   0  0  0  0  0  0  0  0  0  0  0  0
   -5.3971    4.4462    0.0000 C   0  0  0  0  0  0  0  0  0  0  0  0
   -5.3971    2.9462    0.0000 C   0  0  0  0  0  0  0  0  0  0  0  0
   -4.0981    2.1962    0.0000 C   0  0  0  0  0  0  0  0  0  0  0  0
   -2.7990    2.9462    0.0000 C   0  0  0  0  0  0  0  0  0  0  0  0
   -0.2010    5.9462    0.0000 C   0  0  0  0  0  0  0  0  0  0  0  0
    1.0981    5.1962    0.0000 C   0  0  0  0  0  0  0  0  0  0  0  0
    2.3971    5.9462    0.0000 C   0  0  0  0  0  0  0  0  0  0  0  0
    2.3971    7.4462    0.0000 C   0  0  0  0  0  0  0  0  0  0  0  0
    1.0981    8.1962    0.0000 C   0  0  0  0  0  0  0  0  0  0  0  0
   -0.2010    7.4462    0.0000 C   0  0  0  0  0  0  0  0  0  0  0  0
  2  3  1  0
  3  4  1  0
  3  5  1  0
  5  6  1  0
  6  7  1  0
  7  8  1  0
  8  9  1  0
  8 10  1  0
 10 11  1  0
 11 12  2  0
 11 13  1  0
 13 14  1  0
 13 15  1  0
 15 16  2  0
 16 17  1  0
 17 18  2  0
 18 19  1  0
 19 20  2  0
 13 21  1  0
 21 22  2  0
 22 23  1  0
 23 24  2  0
 24 25  1  0
 25 26  2  0
  9  3  1  0
 20 15  1  0
 26 21  1  0
M  CHG  2   1  -1   3   1
M  END
$$$$
674802
     RDKit          2D

 22 23  0  0  0  0  0  0  0  0999 V2000
    0.0000    2.2135    0.0000 Br  0  0  0  0  0 15  0  0  0  0  0  0
    2.6004    0.7041    0.0000 C   0  0  0  0  0  0  0  0  0  0  0  0
    1.2760    0.0000    0.0000 N   0  0  0  0  0  4  0  0  0  0  0  0
    1.9798   -0.3742    0.0000 C   0  0  0  0  0  0  0  0  0  0  0  0
    0.3943    1.2135    0.0000 C   0  0  0  0  0  0  0  0  0  0  0  0
   -1.0323    0.7500    0.0000 C   0  0  0  0  0  0  0  0  0  0  0  0
   -1.0323   -0.7500    0.0000 C   0  0  0  0  0  0  0  0  0  0  0  0
    0.3943   -1.2135    0.0000 C   0  0  0  0  0  0  0  0  0  0  0  0
    1.8943   -1.3846    0.0000 C   0  0  0  0  0  0  0  0  0  0  0  0
    2.6443   -0.0855    0.0000 C   0  0  0  0  0  0  0  0  0  0  0  0
    1.8943    1.2135    0.0000 C   0  0  0  0  0  0  0  0  0  0  0  0
    4.1443   -0.0855    0.0000 O   0  0  0  0  0  0  0  0  0  0  0  0
    4.8943   -1.3846    0.0000 C   0  0  0  0  0  0  0  0  0  0  0  0
    4.1443   -2.6836    0.0000 O   0  0  0  0  0  0  0  0  0  0  0  0
    6.3943   -1.3846    0.0000 C   0  0  0  0  0  0  0  0  0  0  0  0
    7.1443   -0.0855    0.0000 O   0  0  0  0  0  0  0  0  0  0  0  0
    7.1443   -2.6836    0.0000 C   0  0  0  0  0  0  0  0  0  0  0  0
    6.3943   -3.9826    0.0000 C   0  0  0  0  0  0  0  0  0  0  0  0
    7.1443   -5.2817    0.0000 C   0  0  0  0  0  0  0  0  0  0  0  0
    8.6443   -5.2817    0.0000 C   0  0  0  0  0  0  0  0  0  0  0  0
    9.3943   -3.9826    0.0000 C   0  0  0  0  0  0  0  0  0  0  0  0
    8.6443   -2.6836    0.0000 C   0  0  0  0  0  0  0  0  0  0  0  0
  2  3  1  0
  3  4  1  0
  3  5  1  0
  5  6  1  6
  6  7  1  0
  8  7  1  6
  8  9  1  0
  9 10  1  0
 10 11  1  0
 10 12  1  6
 12 13  1  0
 13 14  2  0
 13 15  1  0
 15 16  1  0
 15 17  1  0
 17 18  2  0
 18 19  1  0
 19 20  2  0
 20 21  1  0
 21 22  2  0
  8  3  1  0
 11  5  1  0
 22 17  1  0
M  CHG  2   1  -1   3   1
M  END
$$$$
674975
     RDKit          2D

 24 26  0  0  0  0  0  0  0  0999 V2000
    0.0000    6.1106    0.0000 Br  0  0  0  0  0 15  0  0  0  0  0  0
   -3.4451   -0.3742    0.0000 C   0  0  0  0  0  0  0  0  0  0  0  0
   -2.7413    0.0000    0.0000 N   0  0  0  0  0  4  0  0  0  0  0  0
   -4.0657    0.7041    0.0000 C   0  0  0  0  0  0  0  0  0  0  0  0
   -1.8596   -1.2135    0.0000 C   0  0  0  0  0  0  0  0  0  0  0  0
   -3.3596   -1.3846    0.0000 C   0  0  0  0  0  0  0  0  0  0  0  0
   -4.1096   -0.0855    0.0000 C   0  0  0  0  0  0  0  0  0  0  0  0
   -3.3596    1.2135    0.0000 C   0  0  0  0  0  0  0  0  0  0  0  0
   -1.8596    1.2135    0.0000 C   0  0  0  0  0  0  0  0  0  0  0  0
   -0.4330    0.7500    0.0000 C   0  0  0  0  0  0  0  0  0  0  0  0
    0.8660    0.0000    0.0000 O   0  0  0  0  0  0  0  0  0  0  0  0
   -0.4330   -0.7500    0.0000 C   0  0  0  0  0  0  0  0  0  0  0  0
   -5.6096   -0.0855    0.0000 O   0  0  0  0  0  0  0  0  0  0  0  0
   -6.3596    1.2135    0.0000 C   0  0  0  0  0  0  0  0  0  0  0  0
   -5.6096    2.5126    0.0000 O   0  0  0  0  0  0  0  0  0  0  0  0
   -7.8596    1.2135    0.0000 C   0  0  0  0  0  0  0  0  0  0  0  0
   -8.6096   -0.0855    0.0000 C   0  0  0  0  0  0  0  0  0  0  0  0
  -10.1096   -0.0855    0.0000 O   0  0  0  0  0  0  0  0  0  0  0  0
   -8.6096    2.5126    0.0000 C   0  0  0  0  0  0  0  0  0  0  0  0
   -7.8596    3.8116    0.0000 C   0  0  0  0  0  0  0  0  0  0  0  0
   -8.6096    5.1106    0.0000 C   0  0  0  0  0  0  0  0  0  0  0  0
  -10.1096    5.1106    0.0000 C   0  0  0  0  0  0  0  0  0  0  0  0
  -10.8596    3.8116    0.0000 C   0  0  0  0  0  0  0  0  0  0  0  0
  -10.1096    2.5126    0.0000 C   0  0  0  0  0  0  0  0  0  0  0  0
  2  3  1  0
  3  4  1  0
  3  5  1  0
  5  6  1  6
  6  7  1  0
  7  8  1  0
  9  8  1  1
  9 10  1  0
 10 11  1  1
 12 11  1  1
  7 13  1  6
 13 14  1  0
 14 15  2  0
 14 16  1  0
 16 17  1  6
 17 18  1  0
 16 19  1  0
 19 20  2  0
 20 21  1  0
 21 22  2  0
 22 23  1  0
 23 24  2  0
  9  3  1  0
 12  5  1  0
 12 10  1  0
 24 19  1  0
M  CHG  2   1  -1   3   1
M  END
$$$$
675721
     RDKit          2D

 27 31  0  0  0  0  0  0  0  0999 V2000
    4.4579    0.0000    0.0000 Br  0  0  0  0  0 15  0  0  0  0  0  0
    2.1595   -1.8121    0.0000 C   0  0  0  0  0  0  0  0  0  0  0  0
    0.4000   -0.6928    0.0000 N   0  0  0  0  0  4  0  0  0  0  0  0
    0.4895   -2.7762    0.0000 C   0  0  0  0  0  0  0  0  0  0  0  0
    1.6386   -3.7404    0.0000 C   0  0  0  0  0  0  0  0  0  0  0  0
    3.1158   -4.0009    0.0000 C   0  0  0  0  0  0  0  0  0  0  0  0
    2.1516   -5.1500    0.0000 C   0  0  0  0  0  0  0  0  0  0  0  0
    0.8000   -0.0000    0.0000 C   0  0  0  0  0  0  0  0  0  0  0  0
    0.4000    0.6928    0.0000 C   0  0  0  0  0  0  0  0  0  0  0  0
   -0.7500    1.2990    0.0000 C   0  0  0  0  0  0  0  0  0  0  0  0
   -1.5000    2.5981    0.0000 C   0  0  0  0  0  0  0  0  0  0  0  0
   -0.4963    3.7128    0.0000 O   0  0  0  0  0  0  0  0  0  0  0  0
    0.8740    3.1027    0.0000 C   0  0  0  0  0  0  0  0  0  0  0  0
    2.2443    3.7128    0.0000 C   0  0  0  0  0  0  0  0  0  0  0  0
    2.4011    5.2046    0.0000 O   0  0  0  0  0  0  0  0  0  0  0  0
    3.4579    2.8311    0.0000 C   0  0  0  0  0  0  0  0  0  0  0  0
    3.3011    1.3393    0.0000 C   0  0  0  0  0  0  0  0  0  0  0  0
    1.9307    0.7292    0.0000 C   0  0  0  0  0  0  0  0  0  0  0  0
   -0.1666    0.0829    0.0000 C   0  0  0  0  0  0  0  0  0  0  0  0
   -0.7500   -1.2990    0.0000 C   0  0  0  0  0  0  0  0  0  0  0  0
   -1.5000    0.0000    0.0000 C   0  0  0  0  0  0  0  0  0  0  0  0
   -2.2500   -1.2990    0.0000 O   0  0  0  0  0  0  0  0  0  0  0  0
   -3.0000    0.0000    0.0000 C   0  0  0  0  0  0  0  0  0  0  0  0
   -3.7500    1.2990    0.0000 C   0  0  0  0  0  0  0  0  0  0  0  0
   -3.0000    2.5981    0.0000 C   0  0  0  0  0  0  0  0  0  0  0  0
   -3.7500    3.8971    0.0000 O   0  0  0  0  0  0  0  0  0  0  0  0
    0.7172    1.6109    0.0000 C   0  0  0  0  0  0  0  0  0  0  0  0
  2  3  1  0
  3  4  1  0
  4  5  1  0
  5  6  1  0
  6  7  1  0
  3  8  1  0
  8  9  1  0
 10  9  1  1
 10 11  1  0
 11 12  1  6
 12 13  1  0
 13 14  2  0
 14 15  1  0
 14 16  1  0
 16 17  2  0
 17 18  1  0
 18 19  1  0
 20 19  1  6
 20 21  1  0
 21 22  1  1
 21 23  1  0
 23 24  1  0
 24 25  1  0
 25 26  2  0
 18 27  2  0
 20  3  1  0
  7  5  1  0
 21 10  1  0
 27 10  1  0
 25 11  1  0
 27 13  1  0
M  CHG  2   1  -1   3   1
M  END
$$$$
674901
     RDKit          2D

 27 29  0  0  0  0  0  0  0  0999 V2000
    2.5000    0.0000    0.0000 Br  0  0  0  0  0 15  0  0  0  0  0  0
    1.5000   -2.5981    0.0000 C   0  0  0  0  0  0  0  0  0  0  0  0
    0.7500   -1.2990    0.0000 N   0  0  0  0  0  4  0  0  0  0  0  0
    1.5000    0.0000    0.0000 C   0  0  0  0  0  0  0  0  0  0  0  0
    0.7500    1.2990    0.0000 C   0  0  0  0  0  0  0  0  0  0  0  0
   -0.7500    1.2990    0.0000 C   0  0  0  0  0  0  0  0  0  0  0  0
   -1.5000    0.0000    0.0000 C   0  0  0  0  0  0  0  0  0  0  0  0
   -0.7500   -1.2990    0.0000 C   0  0  0  0  0  0  0  0  0  0  0  0
   -0.3828    0.5621    0.0000 C   0  0  0  0  0  0  0  0  0  0  0  0
    0.2954   -0.6125    0.0000 C   0  0  0  0  0  0  0  0  0  0  0  0
   -3.0000   -0.0000    0.0000 O   0  0  0  0  0  0  0  0  0  0  0  0
   -3.7500    1.2990    0.0000 C   0  0  0  0  0  0  0  0  0  0  0  0
   -3.0000    2.5981    0.0000 O   0  0  0  0  0  0  0  0  0  0  0  0
   -5.2500    1.2990    0.0000 C   0  0  0  0  0  0  0  0  0  0  0  0
   -6.7500    1.2990    0.0000 O   0  0  0  0  0  0  0  0  0  0  0  0
   -5.2500   -0.2010    0.0000 C   0  0  0  0  0  0  0  0  0  0  0  0
   -6.5490   -0.9510    0.0000 C   0  0  0  0  0  0  0  0  0  0  0  0
   -6.5490   -2.4510    0.0000 C   0  0  0  0  0  0  0  0  0  0  0  0
   -5.2500   -3.2010    0.0000 C   0  0  0  0  0  0  0  0  0  0  0  0
   -3.9510   -2.4510    0.0000 C   0  0  0  0  0  0  0  0  0  0  0  0
   -3.9510   -0.9510    0.0000 C   0  0  0  0  0  0  0  0  0  0  0  0
   -5.2500    2.7990    0.0000 C   0  0  0  0  0  0  0  0  0  0  0  0
   -3.9510    3.5490    0.0000 C   0  0  0  0  0  0  0  0  0  0  0  0
   -3.9510    5.0490    0.0000 C   0  0  0  0  0  0  0  0  0  0  0  0
   -5.2500    5.7990    0.0000 C   0  0  0  0  0  0  0  0  0  0  0  0
   -6.5490    5.0490    0.0000 C   0  0  0  0  0  0  0  0  0  0  0  0
   -6.5490    3.5490    0.0000 C   0  0  0  0  0  0  0  0  0  0  0  0
  2  3  1  0
  3  4  1  0
  4  5  1  0
  5  6  1  0
  6  7  1  0
  7  8  1  0
  6  9  1  0
  9 10  1  0
  9 11  1  0
 11 12  1  0
 12 13  2  0
 12 14  1  0
 14 15  1  0
 14 16  1  0
 16 17  2  0
 17 18  1  0
 18 19  2  0
 19 20  1  0
 20 21  2  0
 14 22  1  0
 22 23  2  0
 23 24  1  0
 24 25  2  0
 25 26  1  0
 26 27  2  0
  8  3  1  0
 10  3  1  0
 21 16  1  0
 27 22  1  0
M  CHG  2   1  -1   3   1
M  END
$$$$
1359038
     RDKit          2D

 23 20  0  0  0  0  0  0  0  0999 V2000
    0.0000    7.7990    0.0000 Ca  0  0  0  0  0 15  0  0  0  0  0  0
    0.0000    0.0000    0.0000 C   0  0  0  0  0  0  0  0  0  0  0  0
    1.2990    0.7500    0.0000 C   0  0  0  0  0  0  0  0  0  0  0  0
    1.2990    2.2500    0.0000 O   0  0  0  0  0  0  0  0  0  0  0  0
    2.5981   -0.0000    0.0000 N   0  0  0  0  0  0  0  0  0  0  0  0
    3.8971    0.7500    0.0000 C   0  0  0  0  0  0  0  0  0  0  0  0
    5.1962   -0.0000    0.0000 C   0  0  0  0  0  0  0  0  0  0  0  0
    6.4952    0.7500    0.0000 C   0  0  0  0  0  0  0  0  0  0  0  0
    7.7942   -0.0000    0.0000 S   0  0  0  0  0  0  0  0  0  0  0  0
    8.5442    1.2990    0.0000 O   0  0  0  0  0  0  0  0  0  0  0  0
    7.0442   -1.2990    0.0000 O   0  0  0  0  0  0  0  0  0  0  0  0
    9.0933   -0.7500    0.0000 O   0  0  0  0  0  1  0  0  0  0  0  0
    0.0000    4.5490    0.0000 C   0  0  0  0  0  0  0  0  0  0  0  0
    1.2990    5.2990    0.0000 C   0  0  0  0  0  0  0  0  0  0  0  0
    1.2990    6.7990    0.0000 O   0  0  0  0  0  0  0  0  0  0  0  0
    2.5981    4.5490    0.0000 N   0  0  0  0  0  0  0  0  0  0  0  0
    3.8971    5.2990    0.0000 C   0  0  0  0  0  0  0  0  0  0  0  0
    5.1962    4.5490    0.0000 C   0  0  0  0  0  0  0  0  0  0  0  0
    6.4952    5.2990    0.0000 C   0  0  0  0  0  0  0  0  0  0  0  0
    7.7942    4.5490    0.0000 S   0  0  0  0  0  0  0  0  0  0  0  0
    8.5442    5.8481    0.0000 O   0  0  0  0  0  0  0  0  0  0  0  0
    7.0442    3.2500    0.0000 O   0  0  0  0  0  0  0  0  0  0  0  0
    9.0933    3.7990    0.0000 O   0  0  0  0  0  1  0  0  0  0  0  0
  2  3  1  0
  3  4  2  0
  3  5  1  0
  5  6  1  0
  6  7  1  0
  7  8  1  0
  8  9  1  0
  9 10  2  0
  9 11  2  0
  9 12  1  0
 13 14  1  0
 14 15  2  0
 14 16  1  0
 16 17  1  0
 17 18  1  0
 18 19  1  0
 19 20  1  0
 20 21  2  0
 20 22  2  0
 20 23  1  0
M  CHG  3   1   2  12  -1  23  -1
M  END
$$$$
674751
     RDKit          2D

  9  6  0  0  0  0  0  0  0  0999 V2000
    3.5981    0.0000    0.0000 Ca  0  0  0  0  0 15  0  0  0  0  0  0
    0.0000    0.0000    0.0000 C   0  0  0  0  0  0  0  0  0  0  0  0
    1.2990    0.7500    0.0000 C   0  0  0  0  0  0  0  0  0  0  0  0
    1.2990    2.2500    0.0000 O   0  0  0  0  0  0  0  0  0  0  0  0
    2.5981   -0.0000    0.0000 O   0  0  0  0  0  1  0  0  0  0  0  0
    0.0000    3.2500    0.0000 C   0  0  0  0  0  0  0  0  0  0  0  0
    1.2990    4.0000    0.0000 C   0  0  0  0  0  0  0  0  0  0  0  0
    1.2990    5.5000    0.0000 O   0  0  0  0  0  0  0  0  0  0  0  0
    2.5981    3.2500    0.0000 O   0  0  0  0  0  1  0  0  0  0  0  0
  2  3  1  0
  3  4  2  0
  3  5  1  0
  6  7  1  0
  7  8  2  0
  7  9  1  0
M  CHG  3   1   2   5  -1   9  -1
M  END
$$$$
407354
     RDKit          2D

 83 88  0  0  0  0  0  0  0  0999 V2000
   14.6390    0.0000    0.0000 Ca  0  0  0  0  0 15  0  0  0  0  0  0
    5.4627   -4.5501    0.0000 C   0  0  0  0  0  0  0  0  0  0  0  0
    3.9955   -4.2382    0.0000 C   0  0  0  0  0  0  0  0  0  0  0  0
    3.5320   -2.8116    0.0000 C   0  0  0  0  0  0  0  0  0  0  0  0
    2.9918   -5.3529    0.0000 C   0  0  0  0  0  0  0  0  0  0  0  0
    1.5000   -5.1962    0.0000 C   0  0  0  0  0  0  0  0  0  0  0  0
    0.7500   -3.8971    0.0000 C   0  0  0  0  0  0  0  0  0  0  0  0
   -0.7500   -3.8971    0.0000 O   0  0  0  0  0  0  0  0  0  0  0  0
    1.5000   -2.5981    0.0000 N   0  0  0  0  0  0  0  0  0  0  0  0
    0.7500   -1.2990    0.0000 C   0  0  0  0  0  0  0  0  0  0  0  0
    1.5000    0.0000    0.0000 C   0  0  0  0  0  0  0  0  0  0  0  0
    0.7500    1.2990    0.0000 C   0  0  0  0  0  0  0  0  0  0  0  0
   -0.7500    1.2990    0.0000 C   0  0  0  0  0  0  0  0  0  0  0  0
   -1.5000    0.0000    0.0000 C   0  0  0  0  0  0  0  0  0  0  0  0
   -0.7500   -1.2990    0.0000 C   0  0  0  0  0  0  0  0  0  0  0  0
    0.8899   -6.5665    0.0000 C   0  0  0  0  0  0  0  0  0  0  0  0
   -0.5773   -6.8783    0.0000 C   0  0  0  0  0  0  0  0  0  0  0  0
   -1.5810   -5.7636    0.0000 C   0  0  0  0  0  0  0  0  0  0  0  0
   -3.0482   -6.0755    0.0000 C   0  0  0  0  0  0  0  0  0  0  0  0
   -3.5118   -7.5021    0.0000 C   0  0  0  0  0  0  0  0  0  0  0  0
   -2.5081   -8.6168    0.0000 C   0  0  0  0  0  0  0  0  0  0  0  0
   -1.0409   -8.3049    0.0000 C   0  0  0  0  0  0  0  0  0  0  0  0
    2.0046   -7.5702    0.0000 C   0  0  0  0  0  0  0  0  0  0  0  0
    1.8478   -9.0619    0.0000 C   0  0  0  0  0  0  0  0  0  0  0  0
    0.4775   -9.6721    0.0000 C   0  0  0  0  0  0  0  0  0  0  0  0
    0.3207  -11.1638    0.0000 C   0  0  0  0  0  0  0  0  0  0  0  0
    1.5342  -12.0455    0.0000 C   0  0  0  0  0  0  0  0  0  0  0  0
    1.3774  -13.5373    0.0000 F   0  0  0  0  0  0  0  0  0  0  0  0
    2.9046  -11.4354    0.0000 C   0  0  0  0  0  0  0  0  0  0  0  0
    3.0613   -9.9436    0.0000 C   0  0  0  0  0  0  0  0  0  0  0  0
    3.3037   -6.8202    0.0000 N   0  0  0  0  0  0  0  0  0  0  0  0
    4.6740   -7.4303    0.0000 C   0  0  0  0  0  0  0  0  0  0  0  0
    5.8875   -6.5486    0.0000 C   0  0  0  0  0  0  0  0  0  0  0  0
    7.2578   -7.1587    0.0000 C   0  0  0  0  0  0  0  0  0  0  0  0
    7.4146   -8.6505    0.0000 O   0  0  0  0  0  0  0  0  0  0  0  0
    8.4713   -6.2770    0.0000 C   0  0  0  0  0  0  0  0  0  0  0  0
    9.8417   -6.8871    0.0000 C   0  0  0  0  0  0  0  0  0  0  0  0
    9.9984   -8.3789    0.0000 O   0  0  0  0  0  0  0  0  0  0  0  0
   11.0552   -6.0054    0.0000 C   0  0  0  0  0  0  0  0  0  0  0  0
   12.4255   -6.6156    0.0000 C   0  0  0  0  0  0  0  0  0  0  0  0
   12.5823   -8.1073    0.0000 O   0  0  0  0  0  0  0  0  0  0  0  0
   13.6390   -5.7339    0.0000 O   0  0  0  0  0  1  0  0  0  0  0  0
    5.4627   11.2862    0.0000 C   0  0  0  0  0  0  0  0  0  0  0  0
    3.9955   11.5981    0.0000 C   0  0  0  0  0  0  0  0  0  0  0  0
    3.5320   13.0247    0.0000 C   0  0  0  0  0  0  0  0  0  0  0  0
    2.9918   10.4834    0.0000 C   0  0  0  0  0  0  0  0  0  0  0  0
    1.5000   10.6402    0.0000 C   0  0  0  0  0  0  0  0  0  0  0  0
    0.7500   11.9392    0.0000 C   0  0  0  0  0  0  0  0  0  0  0  0
   -0.7500   11.9392    0.0000 O   0  0  0  0  0  0  0  0  0  0  0  0
    1.5000   13.2383    0.0000 N   0  0  0  0  0  0  0  0  0  0  0  0
    0.7500   14.5373    0.0000 C   0  0  0  0  0  0  0  0  0  0  0  0
    1.5000   15.8363    0.0000 C   0  0  0  0  0  0  0  0  0  0  0  0
    0.7500   17.1354    0.0000 C   0  0  0  0  0  0  0  0  0  0  0  0
   -0.7500   17.1354    0.0000 C   0  0  0  0  0  0  0  0  0  0  0  0
   -1.5000   15.8363    0.0000 C   0  0  0  0  0  0  0  0  0  0  0  0
   -0.7500   14.5373    0.0000 C   0  0  0  0  0  0  0  0  0  0  0  0
    0.8899    9.2699    0.0000 C   0  0  0  0  0  0  0  0  0  0  0  0
   -0.5773    8.9580    0.0000 C   0  0  0  0  0  0  0  0  0  0  0  0
   -1.5810   10.0727    0.0000 C   0  0  0  0  0  0  0  0  0  0  0  0
   -3.0482    9.7608    0.0000 C   0  0  0  0  0  0  0  0  0  0  0  0
   -3.5118    8.3343    0.0000 C   0  0  0  0  0  0  0  0  0  0  0  0
   -2.5081    7.2195    0.0000 C   0  0  0  0  0  0  0  0  0  0  0  0
   -1.0409    7.5314    0.0000 C   0  0  0  0  0  0  0  0  0  0  0  0
    2.0046    8.2662    0.0000 C   0  0  0  0  0  0  0  0  0  0  0  0
    1.8478    6.7744    0.0000 C   0  0  0  0  0  0  0  0  0  0  0  0
    0.4775    6.1643    0.0000 C   0  0  0  0  0  0  0  0  0  0  0  0
    0.3207    4.6725    0.0000 C   0  0  0  0  0  0  0  0  0  0  0  0
    1.5342    3.7908    0.0000 C   0  0  0  0  0  0  0  0  0  0  0  0
    1.3774    2.2990    0.0000 F   0  0  0  0  0  0  0  0  0  0  0  0
    2.9046    4.4009    0.0000 C   0  0  0  0  0  0  0  0  0  0  0  0
    3.0613    5.8927    0.0000 C   0  0  0  0  0  0  0  0  0  0  0  0
    3.3037    9.0162    0.0000 N   0  0  0  0  0  0  0  0  0  0  0  0
    4.6740    8.4061    0.0000 C   0  0  0  0  0  0  0  0  0  0  0  0
    5.8875    9.2877    0.0000 C   0  0  0  0  0  0  0  0  0  0  0  0
    7.2578    8.6776    0.0000 C   0  0  0  0  0  0  0  0  0  0  0  0
    7.4146    7.1859    0.0000 O   0  0  0  0  0  0  0  0  0  0  0  0
    8.4713    9.5593    0.0000 C   0  0  0  0  0  0  0  0  0  0  0  0
    9.8417    8.9492    0.0000 C   0  0  0  0  0  0  0  0  0  0  0  0
    9.9984    7.4574    0.0000 O   0  0  0  0  0  0  0  0  0  0  0  0
   11.0552    9.8309    0.0000 C   0  0  0  0  0  0  0  0  0  0  0  0
   12.4255    9.2208    0.0000 C   0  0  0  0  0  0  0  0  0  0  0  0
   12.5823    7.7290    0.0000 O   0  0  0  0  0  0  0  0  0  0  0  0
   13.6390   10.1025    0.0000 O   0  0  0  0  0  1  0  0  0  0  0  0
  2  3  1  0
  3  4  1  0
  3  5  1  0
  5  6  2  0
  6  7  1  0
  7  8  2  0
  7  9  1  0
  9 10  1  0
 10 11  2  0
 11 12  1  0
 12 13  2  0
 13 14  1  0
 14 15  2  0
  6 16  1  0
 16 17  1  0
 17 18  2  0
 18 19  1  0
 19 20  2  0
 20 21  1  0
 21 22  2  0
 16 23  2  0
 23 24  1  0
 24 25  2  0
 25 26  1  0
 26 27  2  0
 27 28  1  0
 27 29  1  0
 29 30  2  0
 23 31  1  0
 31 32  1  0
 32 33  1  0
 33 34  1  0
 34 35  1  6
 34 36  1  0
 36 37  1  0
 37 38  1  6
 37 39  1  0
 39 40  1  0
 40 41  2  0
 40 42  1  0
 43 44  1  0
 44 45  1  0
 44 46  1  0
 46 47  2  0
 47 48  1  0
 48 49  2  0
 48 50  1  0
 50 51  1  0
 51 52  2  0
 52 53  1  0
 53 54  2  0
 54 55  1  0
 55 56  2  0
 47 57  1  0
 57 58  1  0
 58 59  2  0
 59 60  1  0
 60 61  2  0
 61 62  1  0
 62 63  2  0
 57 64  2  0
 64 65  1  0
 65 66  2  0
 66 67  1  0
 67 68  2  0
 68 69  1  0
 68 70  1  0
 70 71  2  0
 64 72  1  0
 72 73  1  0
 73 74  1  0
 74 75  1  0
 75 76  1  6
 75 77  1  0
 77 78  1  0
 78 79  1  6
 78 80  1  0
 80 81  1  0
 81 82  2  0
 81 83  1  0
 31  5  1  0
 15 10  1  0
 22 17  1  0
 30 24  1  0
 72 46  1  0
 56 51  1  0
 63 58  1  0
 71 65  1  0
M  CHG  3   1   2  42  -1  83  -1
M  END
$$$$
1123018
     RDKit          2D

 67 68  0  0  0  0  0  0  0  0999 V2000
   10.7500    0.0000    0.0000 Ca  0  0  0  0  0 15  0  0  0  0  0  0
    3.7500   -1.2990    0.0000 C   0  0  0  0  0  0  0  0  0  0  0  0
    3.0000    0.0000    0.0000 C   0  0  0  0  0  0  0  0  0  0  0  0
    3.7500    1.2990    0.0000 C   0  0  0  0  0  0  0  0  0  0  0  0
    1.5000    0.0000    0.0000 C   0  0  0  0  0  0  0  0  0  0  0  0
    0.7500   -1.2990    0.0000 N   0  0  0  0  0  0  0  0  0  0  0  0
   -0.7500   -1.2990    0.0000 C   0  0  0  0  0  0  0  0  0  0  0  0
   -1.5000    0.0000    0.0000 N   0  0  0  0  0  0  0  0  0  0  0  0
   -0.7500    1.2990    0.0000 C   0  0  0  0  0  0  0  0  0  0  0  0
    0.7500    1.2990    0.0000 C   0  0  0  0  0  0  0  0  0  0  0  0
    1.5000    2.5981    0.0000 C   0  0  0  0  0  0  0  0  0  0  0  0
    3.0000    2.5981    0.0000 C   0  0  0  0  0  0  0  0  0  0  0  0
    3.7500    3.8971    0.0000 C   0  0  0  0  0  0  0  0  0  0  0  0
    3.0000    5.1962    0.0000 O   0  0  0  0  0  0  0  0  0  0  0  0
    5.2500    3.8971    0.0000 C   0  0  0  0  0  0  0  0  0  0  0  0
    6.0000    5.1962    0.0000 C   0  0  0  0  0  0  0  0  0  0  0  0
    5.2500    6.4952    0.0000 O   0  0  0  0  0  0  0  0  0  0  0  0
    7.5000    5.1962    0.0000 C   0  0  0  0  0  0  0  0  0  0  0  0
    8.2500    6.4952    0.0000 C   0  0  0  0  0  0  0  0  0  0  0  0
    7.5000    7.7942    0.0000 O   0  0  0  0  0  0  0  0  0  0  0  0
    9.7500    6.4952    0.0000 O   0  0  0  0  0  1  0  0  0  0  0  0
   -1.5000    2.5981    0.0000 C   0  0  0  0  0  0  0  0  0  0  0  0
   -0.7500    3.8971    0.0000 C   0  0  0  0  0  0  0  0  0  0  0  0
   -1.5000    5.1962    0.0000 C   0  0  0  0  0  0  0  0  0  0  0  0
   -3.0000    5.1962    0.0000 C   0  0  0  0  0  0  0  0  0  0  0  0
   -3.7500    6.4952    0.0000 F   0  0  0  0  0  0  0  0  0  0  0  0
   -3.7500    3.8971    0.0000 C   0  0  0  0  0  0  0  0  0  0  0  0
   -3.0000    2.5981    0.0000 C   0  0  0  0  0  0  0  0  0  0  0  0
   -1.5000   -2.5981    0.0000 N   0  0  0  0  0  0  0  0  0  0  0  0
   -3.0000   -2.5981    0.0000 C   0  0  0  0  0  0  0  0  0  0  0  0
   -0.7500   -3.8971    0.0000 S   0  0  0  0  0  0  0  0  0  0  0  0
    0.5490   -3.1471    0.0000 O   0  0  0  0  0  0  0  0  0  0  0  0
   -2.0490   -4.6471    0.0000 O   0  0  0  0  0  0  0  0  0  0  0  0
   -0.0000   -5.1962    0.0000 C   0  0  0  0  0  0  0  0  0  0  0  0
    3.7500   12.6913    0.0000 C   0  0  0  0  0  0  0  0  0  0  0  0
    3.0000   13.9904    0.0000 C   0  0  0  0  0  0  0  0  0  0  0  0
    3.7500   15.2894    0.0000 C   0  0  0  0  0  0  0  0  0  0  0  0
    1.5000   13.9904    0.0000 C   0  0  0  0  0  0  0  0  0  0  0  0
    0.7500   12.6913    0.0000 N   0  0  0  0  0  0  0  0  0  0  0  0
   -0.7500   12.6913    0.0000 C   0  0  0  0  0  0  0  0  0  0  0  0
   -1.5000   13.9904    0.0000 N   0  0  0  0  0  0  0  0  0  0  0  0
   -0.7500   15.2894    0.0000 C   0  0  0  0  0  0  0  0  0  0  0  0
    0.7500   15.2894    0.0000 C   0  0  0  0  0  0  0  0  0  0  0  0
    1.5000   16.5885    0.0000 C   0  0  0  0  0  0  0  0  0  0  0  0
    3.0000   16.5885    0.0000 C   0  0  0  0  0  0  0  0  0  0  0  0
    3.7500   17.8875    0.0000 C   0  0  0  0  0  0  0  0  0  0  0  0
    3.0000   19.1865    0.0000 O   0  0  0  0  0  0  0  0  0  0  0  0
    5.2500   17.8875    0.0000 C   0  0  0  0  0  0  0  0  0  0  0  0
    6.0000   19.1865    0.0000 C   0  0  0  0  0  0  0  0  0  0  0  0
    5.2500   20.4856    0.0000 O   0  0  0  0  0  0  0  0  0  0  0  0
    7.5000   19.1865    0.0000 C   0  0  0  0  0  0  0  0  0  0  0  0
    8.2500   20.4856    0.0000 C   0  0  0  0  0  0  0  0  0  0  0  0
    7.5000   21.7846    0.0000 O   0  0  0  0  0  0  0  0  0  0  0  0
    9.7500   20.4856    0.0000 O   0  0  0  0  0  1  0  0  0  0  0  0
   -1.5000   16.5885    0.0000 C   0  0  0  0  0  0  0  0  0  0  0  0
   -0.7500   17.8875    0.0000 C   0  0  0  0  0  0  0  0  0  0  0  0
   -1.5000   19.1865    0.0000 C   0  0  0  0  0  0  0  0  0  0  0  0
   -3.0000   19.1865    0.0000 C   0  0  0  0  0  0  0  0  0  0  0  0
   -3.7500   20.4856    0.0000 F   0  0  0  0  0  0  0  0  0  0  0  0
   -3.7500   17.8875    0.0000 C   0  0  0  0  0  0  0  0  0  0  0  0
   -3.0000   16.5885    0.0000 C   0  0  0  0  0  0  0  0  0  0  0  0
   -1.5000   11.3923    0.0000 N   0  0  0  0  0  0  0  0  0  0  0  0
   -3.0000   11.3923    0.0000 C   0  0  0  0  0  0  0  0  0  0  0  0
   -0.7500   10.0933    0.0000 S   0  0  0  0  0  0  0  0  0  0  0  0
    0.5490   10.8433    0.0000 O   0  0  0  0  0  0  0  0  0  0  0  0
   -2.0490    9.3433    0.0000 O   0  0  0  0  0  0  0  0  0  0  0  0
   -0.0000    8.7942    0.0000 C   0  0  0  0  0  0  0  0  0  0  0  0
  2  3  1  0
  3  4  1  0
  3  5  1  0
  5  6  2  0
  6  7  1  0
  7  8  2  0
  8  9  1  0
  9 10  2  0
 10 11  1  0
 11 12  2  0
 12 13  1  0
 13 14  1  1
 13 15  1  0
 15 16  1  0
 16 17  1  1
 16 18  1  0
 18 19  1  0
 19 20  2  0
 19 21  1  0
  9 22  1  0
 22 23  2  0
 23 24  1  0
 24 25  2  0
 25 26  1  0
 25 27  1  0
 27 28  2  0
  7 29  1  0
 29 30  1  0
 29 31  1  0
 31 32  2  0
 31 33  2  0
 31 34  1  0
 35 36  1  0
 36 37  1  0
 36 38  1  0
 38 39  2  0
 39 40  1  0
 40 41  2  0
 41 42  1  0
 42 43  2  0
 43 44  1  0
 44 45  2  0
 45 46  1  0
 46 47  1  1
 46 48  1  0
 48 49  1  0
 49 50  1  1
 49 51  1  0
 51 52  1  0
 52 53  2  0
 52 54  1  0
 42 55  1  0
 55 56  2  0
 56 57  1  0
 57 58  2  0
 58 59  1  0
 58 60  1  0
 60 61  2  0
 40 62  1  0
 62 63  1  0
 62 64  1  0
 64 65  2  0
 64 66  2  0
 64 67  1  0
 10  5  1  0
 28 22  1  0
 43 38  1  0
 61 55  1  0
M  CHG  3   1   2  21  -1  54  -1
M  END
$$$$
674685
     RDKit          2D

 40 41  0  0  0  0  0  0  0  0999 V2000
    6.2500    0.0000    0.0000 Ca  0  0  0  0  0 15  0  0  0  0  0  0
    5.2500   -9.0933    0.0000 C   0  0  0  0  0  0  0  0  0  0  0  0
    3.7500   -9.0933    0.0000 C   0  0  0  0  0  0  0  0  0  0  0  0
    3.0000  -10.3923    0.0000 C   0  0  0  0  0  0  0  0  0  0  0  0
    3.0000   -7.7942    0.0000 C   0  0  0  0  0  0  0  0  0  0  0  0
    1.5000   -7.7942    0.0000 N   0  0  0  0  0  0  0  0  0  0  0  0
    0.7500   -6.4952    0.0000 C   0  0  0  0  0  0  0  0  0  0  0  0
    1.5000   -5.1962    0.0000 C   0  0  0  0  0  0  0  0  0  0  0  0
    3.0000   -5.1962    0.0000 O   0  0  0  0  0  0  0  0  0  0  0  0
    3.7500   -3.8971    0.0000 P   0  0  0  0  0  0  0  0  0  0  0  0
    5.0490   -4.6471    0.0000 O   0  0  0  0  0  0  0  0  0  0  0  0
    2.4510   -3.1471    0.0000 O   0  0  0  0  0  1  0  0  0  0  0  0
    4.5000   -2.5981    0.0000 O   0  0  0  0  0  1  0  0  0  0  0  0
    0.7500   -3.8971    0.0000 C   0  0  0  0  0  0  0  0  0  0  0  0
    1.5000   -2.5981    0.0000 C   0  0  0  0  0  0  0  0  0  0  0  0
    0.7500   -1.2990    0.0000 C   0  0  0  0  0  0  0  0  0  0  0  0
    1.5000    0.0000    0.0000 C   0  0  0  0  0  0  0  0  0  0  0  0
    0.7500    1.2990    0.0000 C   0  0  0  0  0  0  0  0  0  0  0  0
   -0.7500    1.2990    0.0000 C   0  0  0  0  0  0  0  0  0  0  0  0
   -1.5000    0.0000    0.0000 C   0  0  0  0  0  0  0  0  0  0  0  0
   -0.7500   -1.2990    0.0000 C   0  0  0  0  0  0  0  0  0  0  0  0
   -0.7500   -3.8971    0.0000 N   0  0  0  0  0  0  0  0  0  0  0  0
   -1.5000   -5.1962    0.0000 C   0  0  0  0  0  0  0  0  0  0  0  0
   -0.7500   -6.4952    0.0000 O   0  0  0  0  0  0  0  0  0  0  0  0
   -3.0000   -5.1962    0.0000 O   0  0  0  0  0  0  0  0  0  0  0  0
   -3.7500   -6.4952    0.0000 C   0  0  0  0  0  0  0  0  0  0  0  0
   -3.1399   -7.8655    0.0000 C   0  0  0  0  0  0  0  0  0  0  0  0
   -4.2546   -8.8692    0.0000 C   0  0  0  0  0  0  0  0  0  0  0  0
   -5.5537   -8.1192    0.0000 O   0  0  0  0  0  0  0  0  0  0  0  0
   -5.2418   -6.6520    0.0000 C   0  0  0  0  0  0  0  0  0  0  0  0
    0.7500   -9.0933    0.0000 S   0  0  0  0  0  0  0  0  0  0  0  0
   -0.5490   -8.3433    0.0000 O   0  0  0  0  0  0  0  0  0  0  0  0
    2.0490   -9.8433    0.0000 O   0  0  0  0  0  0  0  0  0  0  0  0
   -0.0000  -10.3923    0.0000 C   0  0  0  0  0  0  0  0  0  0  0  0
    0.7500  -11.6913    0.0000 C   0  0  0  0  0  0  0  0  0  0  0  0
   -0.0000  -12.9904    0.0000 C   0  0  0  0  0  0  0  0  0  0  0  0
   -1.5000  -12.9904    0.0000 C   0  0  0  0  0  0  0  0  0  0  0  0
   -2.2500  -14.2894    0.0000 N   0  0  0  0  0  0  0  0  0  0  0  0
   -2.2500  -11.6913    0.0000 C   0  0  0  0  0  0  0  0  0  0  0  0
   -1.5000  -10.3923    0.0000 C   0  0  0  0  0  0  0  0  0  0  0  0
  2  3  1  0
  3  4  1  0
  3  5  1  0
  5  6  1  0
  6  7  1  0
  8  7  1  6
  8  9  1  0
  9 10  1  0
 10 11  2  0
 10 12  1  0
 10 13  1  0
  8 14  1  0
 14 15  1  1
 15 16  1  0
 16 17  2  0
 17 18  1  0
 18 19  2  0
 19 20  1  0
 20 21  2  0
 14 22  1  0
 22 23  1  0
 23 24  2  0
 23 25  1  0
 26 25  1  1
 26 27  1  0
 27 28  1  0
 28 29  1  0
 29 30  1  0
  6 31  1  0
 31 32  2  0
 31 33  2  0
 31 34  1  0
 34 35  2  0
 35 36  1  0
 36 37  2  0
 37 38  1  0
 37 39  1  0
 39 40  2  0
 21 16  1  0
 30 26  1  0
 40 34  1  0
M  CHG  3   1   2  12  -1  13  -1
M  END
$$$$
1359041
     RDKit          2D

 34 36  0  0  0  0  0  0  0  0999 V2000
    4.0000    0.0000    0.0000 Ca  0  0  0  0  0 15  0  0  0  0  0  0
   -3.7500   -9.0933    0.0000 C   0  0  0  0  0  0  0  0  0  0  0  0
   -3.0000   -7.7942    0.0000 N   0  0  0  0  0  0  0  0  0  0  0  0
   -3.7500   -6.4952    0.0000 C   0  0  0  0  0  0  0  0  0  0  0  0
   -1.5000   -7.7942    0.0000 C   0  0  0  0  0  0  0  0  0  0  0  0
   -0.7500   -6.4952    0.0000 C   0  0  0  0  0  0  0  0  0  0  0  0
   -1.5000   -5.1962    0.0000 C   0  0  0  0  0  0  0  0  0  0  0  0
   -3.0000   -5.1962    0.0000 O   0  0  0  0  0  0  0  0  0  0  0  0
   -0.7500   -3.8971    0.0000 C   0  0  0  0  0  0  0  0  0  0  0  0
    0.7500   -3.8971    0.0000 C   0  0  0  0  0  0  0  0  0  0  0  0
    1.5000   -5.1962    0.0000 C   0  0  0  0  0  0  0  0  0  0  0  0
    3.0000   -5.1962    0.0000 O   0  0  0  0  0  0  0  0  0  0  0  0
    0.7500   -6.4952    0.0000 C   0  0  0  0  0  0  0  0  0  0  0  0
    2.2500   -6.4952    0.0000 O   0  0  0  0  0  0  0  0  0  0  0  0
    1.5000   -7.7942    0.0000 C   0  0  0  0  0  0  0  0  0  0  0  0
    3.0000   -7.7942    0.0000 O   0  0  0  0  0  0  0  0  0  0  0  0
    0.7500   -9.0933    0.0000 C   0  0  0  0  0  0  0  0  0  0  0  0
   -0.7500   -9.0933    0.0000 C   0  0  0  0  0  0  0  0  0  0  0  0
   -1.5000  -10.3923    0.0000 O   0  0  0  0  0  1  0  0  0  0  0  0
    1.5000  -10.3923    0.0000 C   0  0  0  0  0  0  0  0  0  0  0  0
    3.0000  -10.3923    0.0000 O   0  0  0  0  0  0  0  0  0  0  0  0
    0.7500  -11.6913    0.0000 N   0  0  0  0  0  0  0  0  0  0  0  0
    1.5000   -2.5981    0.0000 C   0  0  0  0  0  0  0  0  0  0  0  0
    3.0000   -2.5981    0.0000 O   0  0  0  0  0  0  0  0  0  0  0  0
    0.7500   -1.2990    0.0000 C   0  0  0  0  0  0  0  0  0  0  0  0
    1.5000    0.0000    0.0000 C   0  0  0  0  0  0  0  0  0  0  0  0
    3.0000    0.0000    0.0000 O   0  0  0  0  0  1  0  0  0  0  0  0
    0.7500    1.2990    0.0000 C   0  0  0  0  0  0  0  0  0  0  0  0
   -0.7500    1.2990    0.0000 C   0  0  0  0  0  0  0  0  0  0  0  0
   -1.5000    0.0000    0.0000 C   0  0  0  0  0  0  0  0  0  0  0  0
   -0.7500   -1.2990    0.0000 C   0  0  0  0  0  0  0  0  0  0  0  0
   -1.5000   -2.5981    0.0000 C   0  0  0  0  0  0  0  0  0  0  0  0
   -2.6491   -3.5623    0.0000 C   0  0  0  0  0  0  0  0  0  0  0  0
   -2.6491   -1.6339    0.0000 O   0  0  0  0  0  0  0  0  0  0  0  0
  2  3  1  0
  3  4  1  0
  5  3  1  1
  6  5  1  6
  6  7  1  0
  7  8  1  1
  7  9  1  0
  9 10  1  6
 10 11  2  0
 11 12  1  0
 11 13  1  0
 13 14  1  1
 13 15  1  0
 15 16  2  0
 15 17  1  0
 17 18  2  0
 18 19  1  0
 17 20  1  0
 20 21  2  0
 20 22  1  0
 10 23  1  0
 23 24  2  0
 23 25  1  0
 25 26  2  0
 26 27  1  0
 26 28  1  0
 28 29  2  0
 29 30  1  0
 30 31  2  0
 31 32  1  0
 32 33  1  1
 32 34  1  0
 18  5  1  0
 13  6  1  0
 32  9  1  0
 31 25  1  0
M  CHG  3   1   2  19  -1  27  -1
M  END
$$$$
1038354
     RDKit          2D

 34 35  0  0  0  0  0  0  0  0999 V2000
    7.0000    0.0000    0.0000 Ca  0  0  0  0  0 15  0  0  0  0  0  0
    3.0000    0.0000    0.0000 C   0  0  0  0  0  0  0  0  0  0  0  0
    1.5000    0.0000    0.0000 N   0  0  0  0  0  0  0  0  0  0  0  0
    0.7500   -1.2990    0.0000 C   0  0  0  0  0  0  0  0  0  0  0  0
    1.5000   -2.5981    0.0000 C   0  0  0  0  0  0  0  0  0  0  0  0
    0.7500   -3.8971    0.0000 N   0  0  0  0  0  0  0  0  0  0  0  0
    1.5000   -5.1962    0.0000 C   0  0  0  0  0  0  0  0  0  0  0  0
    0.7500   -6.4952    0.0000 C   0  0  0  0  0  0  0  0  0  0  0  0
    1.5000   -7.7942    0.0000 C   0  0  0  0  0  0  0  0  0  0  0  0
    3.0000   -7.7942    0.0000 C   0  0  0  0  0  0  0  0  0  0  0  0
    3.7500   -6.4952    0.0000 C   0  0  0  0  0  0  0  0  0  0  0  0
    3.0000   -5.1962    0.0000 C   0  0  0  0  0  0  0  0  0  0  0  0
    3.7500   -9.0933    0.0000 C   0  0  0  0  0  0  0  0  0  0  0  0
    5.2500   -9.0933    0.0000 O   0  0  0  0  0  0  0  0  0  0  0  0
    3.0000  -10.3923    0.0000 N   0  0  0  0  0  0  0  0  0  0  0  0
    3.7500  -11.6913    0.0000 C   0  0  0  0  0  0  0  0  0  0  0  0
    3.0000  -12.9904    0.0000 C   0  0  0  0  0  0  0  0  0  0  0  0
    3.7500  -14.2894    0.0000 C   0  0  0  0  0  0  0  0  0  0  0  0
    3.0000  -15.5885    0.0000 C   0  0  0  0  0  0  0  0  0  0  0  0
    1.5000  -15.5885    0.0000 O   0  0  0  0  0  0  0  0  0  0  0  0
    3.7500  -16.8875    0.0000 O   0  0  0  0  0  1  0  0  0  0  0  0
    5.2500  -11.6913    0.0000 C   0  0  0  0  0  0  0  0  0  0  0  0
    6.0000  -10.3923    0.0000 O   0  0  0  0  0  0  0  0  0  0  0  0
    6.0000  -12.9904    0.0000 O   0  0  0  0  0  1  0  0  0  0  0  0
   -0.7500   -1.2990    0.0000 C   0  0  0  0  0  0  0  0  0  0  0  0
   -1.5000    0.0000    0.0000 N   0  0  0  0  0  0  0  0  0  0  0  0
   -0.7500    1.2990    0.0000 C   0  0  0  0  0  0  0  0  0  0  0  0
    0.7500    1.2990    0.0000 C   0  0  0  0  0  0  0  0  0  0  0  0
    1.5000    2.5981    0.0000 C   0  0  0  0  0  0  0  0  0  0  0  0
    3.0000    2.5981    0.0000 O   0  0  0  0  0  0  0  0  0  0  0  0
    0.7500    3.8971    0.0000 N   0  0  0  0  0  0  0  0  0  0  0  0
   -0.7500    3.8971    0.0000 C   0  0  0  0  0  0  0  0  0  0  0  0
   -1.5000    5.1962    0.0000 N   0  0  0  0  0  0  0  0  0  0  0  0
   -1.5000    2.5981    0.0000 N   0  0  0  0  0  0  0  0  0  0  0  0
  2  3  1  0
  3  4  1  0
  4  5  1  1
  5  6  1  0
  6  7  1  0
  7  8  2  0
  8  9  1  0
  9 10  2  0
 10 11  1  0
 11 12  2  0
 10 13  1  0
 13 14  2  0
 13 15  1  0
 15 16  1  0
 16 17  1  6
 17 18  1  0
 18 19  1  0
 19 20  2  0
 19 21  1  0
 16 22  1  0
 22 23  2  0
 22 24  1  0
  4 25  1  0
 25 26  1  0
 26 27  1  0
 27 28  2  0
 28 29  1  0
 29 30  2  0
 29 31  1  0
 31 32  2  0
 32 33  1  0
 32 34  1  0
 28  3  1  0
 12  7  1  0
 34 27  1  0
M  CHG  3   1   2  21  -1  24  -1
M  END
$$$$
1540465
     RDKit          2D

 65 70  0  0  0  0  0  0  0  0999 V2000
    0.0000    2.2990    0.0000 Ca  0  0  0  0  0 15  0  0  0  0  0  0
   -3.0000   -2.5981    0.0000 C   0  0  0  0  0  0  0  0  0  0  0  0
   -1.5000   -2.5981    0.0000 C   0  0  0  0  0  0  0  0  0  0  0  0
   -0.7500   -3.8971    0.0000 C   0  0  0  0  0  0  0  0  0  0  0  0
   -1.5000   -5.1962    0.0000 C   0  0  0  0  0  0  0  0  0  0  0  0
   -3.0000   -5.1962    0.0000 O   0  0  0  0  0  0  0  0  0  0  0  0
   -0.7500   -6.4952    0.0000 C   0  0  0  0  0  0  0  0  0  0  0  0
   -1.5000   -7.7942    0.0000 C   0  0  0  0  0  0  0  0  0  0  0  0
   -3.0000   -7.7942    0.0000 N   0  0  0  0  0  0  0  0  0  0  0  0
   -3.7500   -9.0933    0.0000 C   0  0  0  0  0  0  0  0  0  0  0  0
   -3.7500   -6.4952    0.0000 C   0  0  0  0  0  0  0  0  0  0  0  0
   -0.7500   -9.0933    0.0000 C   0  0  0  0  0  0  0  0  0  0  0  0
    0.7500   -9.0933    0.0000 C   0  0  0  0  0  0  0  0  0  0  0  0
    1.5000  -10.3923    0.0000 C   0  0  0  0  0  0  0  0  0  0  0  0
    3.0000  -10.3923    0.0000 O   0  0  0  0  0  0  0  0  0  0  0  0
    0.7500  -11.6913    0.0000 N   0  0  0  0  0  0  0  0  0  0  0  0
    1.5000   -7.7942    0.0000 C   0  0  0  0  0  0  0  0  0  0  0  0
    3.0000   -7.7942    0.0000 O   0  0  0  0  0  0  0  0  0  0  0  0
    0.7500   -6.4952    0.0000 C   0  0  0  0  0  0  0  0  0  0  0  0
    2.2500   -6.4952    0.0000 O   0  0  0  0  0  0  0  0  0  0  0  0
    1.5000   -5.1962    0.0000 C   0  0  0  0  0  0  0  0  0  0  0  0
    0.7500   -3.8971    0.0000 C   0  0  0  0  0  0  0  0  0  0  0  0
    1.5000   -2.5981    0.0000 C   0  0  0  0  0  0  0  0  0  0  0  0
    3.0000   -2.5981    0.0000 O   0  0  0  0  0  0  0  0  0  0  0  0
    0.7500   -1.2990    0.0000 C   0  0  0  0  0  0  0  0  0  0  0  0
    1.5000    0.0000    0.0000 C   0  0  0  0  0  0  0  0  0  0  0  0
    3.0000    0.0000    0.0000 O   0  0  0  0  0  1  0  0  0  0  0  0
    0.7500    1.2990    0.0000 C   0  0  0  0  0  0  0  0  0  0  0  0
   -0.7500    1.2990    0.0000 C   0  0  0  0  0  0  0  0  0  0  0  0
   -1.5000    0.0000    0.0000 C   0  0  0  0  0  0  0  0  0  0  0  0
   -0.7500   -1.2990    0.0000 C   0  0  0  0  0  0  0  0  0  0  0  0
    3.0000   -5.1962    0.0000 O   0  0  0  0  0  0  0  0  0  0  0  0
   -1.5000  -10.3923    0.0000 O   0  0  0  0  0  0  0  0  0  0  0  0
    4.7500   -2.5981    0.0000 C   0  0  0  0  0  0  0  0  0  0  0  0
    6.2500   -2.5981    0.0000 C   0  0  0  0  0  0  0  0  0  0  0  0
    7.0000   -3.8971    0.0000 C   0  0  0  0  0  0  0  0  0  0  0  0
    6.2500   -5.1962    0.0000 C   0  0  0  0  0  0  0  0  0  0  0  0
    4.7500   -5.1962    0.0000 O   0  0  0  0  0  0  0  0  0  0  0  0
    7.0000   -6.4952    0.0000 C   0  0  0  0  0  0  0  0  0  0  0  0
    6.2500   -7.7942    0.0000 C   0  0  0  0  0  0  0  0  0  0  0  0
    4.7500   -7.7942    0.0000 N   0  0  0  0  0  0  0  0  0  0  0  0
    4.0000   -9.0933    0.0000 C   0  0  0  0  0  0  0  0  0  0  0  0
    4.0000   -6.4952    0.0000 C   0  0  0  0  0  0  0  0  0  0  0  0
    7.0000   -9.0933    0.0000 C   0  0  0  0  0  0  0  0  0  0  0  0
    8.5000   -9.0933    0.0000 C   0  0  0  0  0  0  0  0  0  0  0  0
    9.2500  -10.3923    0.0000 C   0  0  0  0  0  0  0  0  0  0  0  0
   10.7500  -10.3923    0.0000 O   0  0  0  0  0  0  0  0  0  0  0  0
    8.5000  -11.6913    0.0000 N   0  0  0  0  0  0  0  0  0  0  0  0
    9.2500   -7.7942    0.0000 C   0  0  0  0  0  0  0  0  0  0  0  0
   10.7500   -7.7942    0.0000 O   0  0  0  0  0  0  0  0  0  0  0  0
    8.5000   -6.4952    0.0000 C   0  0  0  0  0  0  0  0  0  0  0  0
   10.0000   -6.4952    0.0000 O   0  0  0  0  0  0  0  0  0  0  0  0
    9.2500   -5.1962    0.0000 C   0  0  0  0  0  0  0  0  0  0  0  0
    8.5000   -3.8971    0.0000 C   0  0  0  0  0  0  0  0  0  0  0  0
    9.2500   -2.5981    0.0000 C   0  0  0  0  0  0  0  0  0  0  0  0
   10.7500   -2.5981    0.0000 O   0  0  0  0  0  0  0  0  0  0  0  0
    8.5000   -1.2990    0.0000 C   0  0  0  0  0  0  0  0  0  0  0  0
    9.2500    0.0000    0.0000 C   0  0  0  0  0  0  0  0  0  0  0  0
   10.7500    0.0000    0.0000 O   0  0  0  0  0  1  0  0  0  0  0  0
    8.5000    1.2990    0.0000 C   0  0  0  0  0  0  0  0  0  0  0  0
    7.0000    1.2990    0.0000 C   0  0  0  0  0  0  0  0  0  0  0  0
    6.2500    0.0000    0.0000 C   0  0  0  0  0  0  0  0  0  0  0  0
    7.0000   -1.2990    0.0000 C   0  0  0  0  0  0  0  0  0  0  0  0
   10.7500   -5.1962    0.0000 O   0  0  0  0  0  0  0  0  0  0  0  0
    6.2500  -10.3923    0.0000 O   0  0  0  0  0  0  0  0  0  0  0  0
  3  2  1  1
  3  4  1  0
  4  5  1  0
  5  6  1  1
  5  7  1  0
  7  8  1  6
  8  9  1  1
  9 10  1  0
  9 11  1  0
  8 12  1  0
 12 13  2  0
 13 14  1  0
 14 15  2  0
 14 16  1  0
 13 17  1  0
 17 18  2  0
 17 19  1  0
 19 20  1  1
 19 21  1  0
 21 22  2  0
 22 23  1  0
 23 24  2  0
 23 25  1  0
 25 26  2  0
 26 27  1  0
 26 28  1  0
 28 29  2  0
 29 30  1  0
 30 31  2  0
 21 32  1  0
 12 33  1  0
 35 34  1  1
 35 36  1  0
 36 37  1  0
 37 38  1  1
 37 39  1  0
 39 40  1  6
 40 41  1  1
 41 42  1  0
 41 43  1  0
 40 44  1  0
 44 45  2  0
 45 46  1  0
 46 47  2  0
 46 48  1  0
 45 49  1  0
 49 50  2  0
 49 51  1  0
 51 52  1  1
 51 53  1  0
 53 54  2  0
 54 55  1  0
 55 56  2  0
 55 57  1  0
 57 58  2  0
 58 59  1  0
 58 60  1  0
 60 61  2  0
 61 62  1  0
 62 63  2  0
 53 64  1  0
 44 65  1  0
 31  3  1  0
  4 22  1  6
 19  7  1  0
 31 25  1  0
 63 35  1  0
 36 54  1  6
 51 39  1  0
 63 57  1  0
M  CHG  3   1   2  27  -1  59  -1
M  END
$$$$
675089
     RDKit          2D

 35 36  0  0  0  0  0  0  0  0999 V2000
    0.0000    8.7942    0.0000 Ca  0  0  0  0  0 15  0  0  0  0  0  0
    3.0000    0.0000    0.0000 N   0  0  0  0  0  0  0  0  0  0  0  0
    1.5000    0.0000    0.0000 C   0  0  0  0  0  0  0  0  0  0  0  0
    0.7500   -1.2990    0.0000 N   0  0  0  0  0  0  0  0  0  0  0  0
   -0.7500   -1.2990    0.0000 C   0  0  0  0  0  0  0  0  0  0  0  0
   -1.5000   -2.5981    0.0000 O   0  0  0  0  0  0  0  0  0  0  0  0
   -1.5000    0.0000    0.0000 C   0  0  0  0  0  0  0  0  0  0  0  0
   -3.0000    0.0000    0.0000 N   0  0  0  0  0  0  0  0  0  0  0  0
   -3.7500   -1.2990    0.0000 C   0  0  0  0  0  0  0  0  0  0  0  0
   -5.2500   -1.2990    0.0000 O   0  0  0  0  0  0  0  0  0  0  0  0
   -3.7500    1.2990    0.0000 C   0  0  0  0  0  0  0  0  0  0  0  0
   -5.2500    1.2990    0.0000 C   0  0  0  0  0  0  0  0  0  0  0  0
   -6.0000    2.5981    0.0000 N   0  0  0  0  0  0  0  0  0  0  0  0
   -7.5000    2.5981    0.0000 C   0  0  0  0  0  0  0  0  0  0  0  0
   -8.2500    3.8971    0.0000 C   0  0  0  0  0  0  0  0  0  0  0  0
   -9.7500    3.8971    0.0000 C   0  0  0  0  0  0  0  0  0  0  0  0
  -10.5000    2.5981    0.0000 C   0  0  0  0  0  0  0  0  0  0  0  0
   -9.7500    1.2990    0.0000 C   0  0  0  0  0  0  0  0  0  0  0  0
   -8.2500    1.2990    0.0000 C   0  0  0  0  0  0  0  0  0  0  0  0
  -12.0000    2.5981    0.0000 C   0  0  0  0  0  0  0  0  0  0  0  0
  -12.7500    1.2990    0.0000 O   0  0  0  0  0  0  0  0  0  0  0  0
  -12.7500    3.8971    0.0000 N   0  0  0  0  0  0  0  0  0  0  0  0
  -14.2500    3.8971    0.0000 C   0  0  0  0  0  0  0  0  0  0  0  0
  -15.0000    5.1962    0.0000 C   0  0  0  0  0  0  0  0  0  0  0  0
  -16.5000    5.1962    0.0000 C   0  0  0  0  0  0  0  0  0  0  0  0
  -17.2500    6.4952    0.0000 C   0  0  0  0  0  0  0  0  0  0  0  0
  -16.5000    7.7942    0.0000 O   0  0  0  0  0  0  0  0  0  0  0  0
  -18.7500    6.4952    0.0000 O   0  0  0  0  0  1  0  0  0  0  0  0
  -15.0000    2.5981    0.0000 C   0  0  0  0  0  0  0  0  0  0  0  0
  -14.2500    1.2990    0.0000 O   0  0  0  0  0  0  0  0  0  0  0  0
  -16.5000    2.5981    0.0000 O   0  0  0  0  0  1  0  0  0  0  0  0
   -3.0000    2.5981    0.0000 C   0  0  0  0  0  0  0  0  0  0  0  0
   -1.5000    2.5981    0.0000 N   0  0  0  0  0  0  0  0  0  0  0  0
   -0.7500    1.2990    0.0000 C   0  0  0  0  0  0  0  0  0  0  0  0
    0.7500    1.2990    0.0000 N   0  0  0  0  0  0  0  0  0  0  0  0
  2  3  1  0
  3  4  2  0
  4  5  1  0
  5  6  1  0
  5  7  2  0
  7  8  1  0
  8  9  1  0
  9 10  2  0
  8 11  1  0
 11 12  1  0
 12 13  1  0
 13 14  1  0
 14 15  2  0
 15 16  1  0
 16 17  2  0
 17 18  1  0
 18 19  2  0
 17 20  1  0
 20 21  2  0
 20 22  1  0
 22 23  1  0
 23 24  1  6
 24 25  1  0
 25 26  1  0
 26 27  2  0
 26 28  1  0
 23 29  1  0
 29 30  2  0
 29 31  1  0
 11 32  1  0
 32 33  1  0
 33 34  1  0
 34 35  2  0
 35  3  1  0
 34  7  1  0
 19 14  1  0
M  CHG  3   1   2  28  -1  31  -1
M  END
$$$$
699412
     RDKit          2D

 63 68  0  0  0  0  0  0  0  0999 V2000
    0.0000    2.2990    0.0000 Ca  0  0  0  0  0 15  0  0  0  0  0  0
   -3.0000  -10.3923    0.0000 O   0  0  0  0  0  0  0  0  0  0  0  0
   -1.5000  -10.3923    0.0000 C   0  0  0  0  0  0  0  0  0  0  0  0
   -0.7500   -9.0933    0.0000 C   0  0  0  0  0  0  0  0  0  0  0  0
   -1.5000   -7.7942    0.0000 C   0  0  0  0  0  0  0  0  0  0  0  0
   -3.0000   -7.7942    0.0000 O   0  0  0  0  0  0  0  0  0  0  0  0
   -0.7500   -6.4952    0.0000 C   0  0  0  0  0  0  0  0  0  0  0  0
   -1.5000   -5.1962    0.0000 C   0  0  0  0  0  0  0  0  0  0  0  0
   -0.7500   -3.8971    0.0000 C   0  0  0  0  0  0  0  0  0  0  0  0
    0.7500   -3.8971    0.0000 C   0  0  0  0  0  0  0  0  0  0  0  0
    1.5000   -2.5981    0.0000 N   0  0  0  0  0  0  0  0  0  0  0  0
    0.7500   -1.2990    0.0000 C   0  0  0  0  0  0  0  0  0  0  0  0
    1.5000    0.0000    0.0000 C   0  0  0  0  0  0  0  0  0  0  0  0
    0.7500    1.2990    0.0000 C   0  0  0  0  0  0  0  0  0  0  0  0
   -0.7500    1.2990    0.0000 C   0  0  0  0  0  0  0  0  0  0  0  0
   -1.5000    0.0000    0.0000 C   0  0  0  0  0  0  0  0  0  0  0  0
   -0.7500   -1.2990    0.0000 C   0  0  0  0  0  0  0  0  0  0  0  0
   -1.5000   -2.5981    0.0000 C   0  0  0  0  0  0  0  0  0  0  0  0
   -3.0000   -2.5981    0.0000 C   0  0  0  0  0  0  0  0  0  0  0  0
   -3.7500   -1.2990    0.0000 C   0  0  0  0  0  0  0  0  0  0  0  0
   -5.2500   -1.2990    0.0000 C   0  0  0  0  0  0  0  0  0  0  0  0
   -6.0000   -2.5981    0.0000 C   0  0  0  0  0  0  0  0  0  0  0  0
   -7.5000   -2.5981    0.0000 F   0  0  0  0  0  0  0  0  0  0  0  0
   -5.2500   -3.8971    0.0000 C   0  0  0  0  0  0  0  0  0  0  0  0
   -3.7500   -3.8971    0.0000 C   0  0  0  0  0  0  0  0  0  0  0  0
    1.5000   -5.1962    0.0000 C   0  0  0  0  0  0  0  0  0  0  0  0
    2.7990   -5.9462    0.0000 C   0  0  0  0  0  0  0  0  0  0  0  0
    1.5000   -6.6962    0.0000 C   0  0  0  0  0  0  0  0  0  0  0  0
   -0.7500  -11.6913    0.0000 C   0  0  0  0  0  0  0  0  0  0  0  0
   -1.5000  -12.9904    0.0000 C   0  0  0  0  0  0  0  0  0  0  0  0
   -3.0000  -12.9904    0.0000 O   0  0  0  0  0  0  0  0  0  0  0  0
   -0.7500  -14.2894    0.0000 O   0  0  0  0  0  1  0  0  0  0  0  0
    8.2990  -10.3923    0.0000 O   0  0  0  0  0  0  0  0  0  0  0  0
    9.7990  -10.3923    0.0000 C   0  0  0  0  0  0  0  0  0  0  0  0
   10.5490   -9.0933    0.0000 C   0  0  0  0  0  0  0  0  0  0  0  0
    9.7990   -7.7942    0.0000 C   0  0  0  0  0  0  0  0  0  0  0  0
    8.2990   -7.7942    0.0000 O   0  0  0  0  0  0  0  0  0  0  0  0
   10.5490   -6.4952    0.0000 C   0  0  0  0  0  0  0  0  0  0  0  0
    9.7990   -5.1962    0.0000 C   0  0  0  0  0  0  0  0  0  0  0  0
   10.5490   -3.8971    0.0000 C   0  0  0  0  0  0  0  0  0  0  0  0
   12.0490   -3.8971    0.0000 C   0  0  0  0  0  0  0  0  0  0  0  0
   12.7990   -2.5981    0.0000 N   0  0  0  0  0  0  0  0  0  0  0  0
   12.0490   -1.2990    0.0000 C   0  0  0  0  0  0  0  0  0  0  0  0
   12.7990    0.0000    0.0000 C   0  0  0  0  0  0  0  0  0  0  0  0
   12.0490    1.2990    0.0000 C   0  0  0  0  0  0  0  0  0  0  0  0
   10.5490    1.2990    0.0000 C   0  0  0  0  0  0  0  0  0  0  0  0
    9.7990    0.0000    0.0000 C   0  0  0  0  0  0  0  0  0  0  0  0
   10.5490   -1.2990    0.0000 C   0  0  0  0  0  0  0  0  0  0  0  0
    9.7990   -2.5981    0.0000 C   0  0  0  0  0  0  0  0  0  0  0  0
    8.2990   -2.5981    0.0000 C   0  0  0  0  0  0  0  0  0  0  0  0
    7.5490   -1.2990    0.0000 C   0  0  0  0  0  0  0  0  0  0  0  0
    6.0490   -1.2990    0.0000 C   0  0  0  0  0  0  0  0  0  0  0  0
    5.2990   -2.5981    0.0000 C   0  0  0  0  0  0  0  0  0  0  0  0
    3.7990   -2.5981    0.0000 F   0  0  0  0  0  0  0  0  0  0  0  0
    6.0490   -3.8971    0.0000 C   0  0  0  0  0  0  0  0  0  0  0  0
    7.5490   -3.8971    0.0000 C   0  0  0  0  0  0  0  0  0  0  0  0
   12.7990   -5.1962    0.0000 C   0  0  0  0  0  0  0  0  0  0  0  0
   14.0981   -5.9462    0.0000 C   0  0  0  0  0  0  0  0  0  0  0  0
   12.7990   -6.6962    0.0000 C   0  0  0  0  0  0  0  0  0  0  0  0
   10.5490  -11.6913    0.0000 C   0  0  0  0  0  0  0  0  0  0  0  0
    9.7990  -12.9904    0.0000 C   0  0  0  0  0  0  0  0  0  0  0  0
    8.2990  -12.9904    0.0000 O   0  0  0  0  0  0  0  0  0  0  0  0
   10.5490  -14.2894    0.0000 O   0  0  0  0  0  1  0  0  0  0  0  0
  3  2  1  6
  3  4  1  0
  4  5  1  0
  5  6  1  6
  5  7  1  0
  7  8  2  0
  8  9  1  0
  9 10  2  0
 10 11  1  0
 11 12  2  0
 12 13  1  0
 13 14  2  0
 14 15  1  0
 15 16  2  0
 16 17  1  0
 17 18  2  0
 18 19  1  0
 19 20  2  0
 20 21  1  0
 21 22  2  0
 22 23  1  0
 22 24  1  0
 24 25  2  0
 10 26  1  0
 26 27  1  0
 27 28  1  0
  3 29  1  0
 29 30  1  0
 30 31  2  0
 30 32  1  0
 34 33  1  6
 34 35  1  0
 35 36  1  0
 36 37  1  6
 36 38  1  0
 38 39  2  0
 39 40  1  0
 40 41  2  0
 41 42  1  0
 42 43  2  0
 43 44  1  0
 44 45  2  0
 45 46  1  0
 46 47  2  0
 47 48  1  0
 48 49  2  0
 49 50  1  0
 50 51  2  0
 51 52  1  0
 52 53  2  0
 53 54  1  0
 53 55  1  0
 55 56  2  0
 41 57  1  0
 57 58  1  0
 58 59  1  0
 34 60  1  0
 60 61  1  0
 61 62  2  0
 61 63  1  0
 18  9  1  0
 17 12  1  0
 25 19  1  0
 28 26  1  0
 49 40  1  0
 48 43  1  0
 56 50  1  0
 59 57  1  0
M  CHG  3   1   2  32  -1  63  -1
M  END
$$$$
674490
     RDKit          2D

  5  3  0  0  0  0  0  0  0  0999 V2000
    0.0000    1.7500    0.0000 Ca  0  0  0  0  0 15  0  0  0  0  0  0
    1.2990    0.7500    0.0000 O   0  0  0  0  0  1  0  0  0  0  0  0
    0.0000    0.0000    0.0000 C   0  0  0  0  0  0  0  0  0  0  0  0
   -0.0000   -1.5000    0.0000 O   0  0  0  0  0  0  0  0  0  0  0  0
   -1.2990    0.7500    0.0000 O   0  0  0  0  0  1  0  0  0  0  0  0
  2  3  1  0
  3  4  2  0
  3  5  1  0
M  CHG  3   1   2   2  -1   5  -1
M  END
$$$$
594843
     RDKit          2D

 12 10  0  0  0  0  0  0  0  0999 V2000
    0.0000    5.5000    0.0000 Cl  0  0  0  0  0 15  0  0  0  0  0  0
    0.0000    0.0000    0.0000 C   0  0  0  0  0  0  0  0  0  0  0  0
    1.2990    0.7500    0.0000 C   0  0  0  0  0  0  0  0  0  0  0  0
    2.5981   -0.0000    0.0000 C   0  0  0  0  0  0  0  0  0  0  0  0
    3.8971    0.7500    0.0000 N   0  0  0  0  0  4  0  0  0  0  0  0
    4.6471   -0.5490    0.0000 C   0  0  0  0  0  0  0  0  0  0  0  0
    3.1471    2.0490    0.0000 C   0  0  0  0  0  0  0  0  0  0  0  0
    5.1962    1.5000    0.0000 C   0  0  0  0  0  0  0  0  0  0  0  0
    1.2990    2.2500    0.0000 O   0  0  0  0  0  0  0  0  0  0  0  0
    0.0000    3.0000    0.0000 C   0  0  0  0  0  0  0  0  0  0  0  0
   -1.2990    2.2500    0.0000 O   0  0  0  0  0  0  0  0  0  0  0  0
   -0.0000    4.5000    0.0000 N   0  0  0  0  0  0  0  0  0  0  0  0
  2  3  1  0
  3  4  1  0
  4  5  1  0
  5  6  1  0
  5  7  1  0
  5  8  1  0
  3  9  1  0
  9 10  1  0
 10 11  2  0
 10 12  1  0
M  CHG  2   1  -1   5   1
M  END
$$$$
674722
     RDKit          2D

 24 24  0  0  0  0  0  0  0  0999 V2000
    8.0981    0.0000    0.0000 Cl  0  0  0  0  0 15  0  0  0  0  0  0
    7.0981   -5.1962    0.0000 C   0  0  0  0  0  0  0  0  0  0  0  0
    5.7990   -4.4462    0.0000 C   0  0  0  0  0  0  0  0  0  0  0  0
    4.5000   -5.1962    0.0000 N   0  0  0  0  0  4  0  0  0  0  0  0
    3.2010   -5.9462    0.0000 C   0  0  0  0  0  0  0  0  0  0  0  0
    3.2010   -7.4462    0.0000 C   0  0  0  0  0  0  0  0  0  0  0  0
    5.2500   -6.4952    0.0000 C   0  0  0  0  0  0  0  0  0  0  0  0
    4.5000   -7.7942    0.0000 C   0  0  0  0  0  0  0  0  0  0  0  0
    3.7500   -3.8971    0.0000 C   0  0  0  0  0  0  0  0  0  0  0  0
    2.2500   -3.8971    0.0000 C   0  0  0  0  0  0  0  0  0  0  0  0
    1.5000   -2.5981    0.0000 C   0  0  0  0  0  0  0  0  0  0  0  0
    0.2010   -3.3481    0.0000 O   0  0  0  0  0  0  0  0  0  0  0  0
    0.7500   -1.2990    0.0000 C   0  0  0  0  0  0  0  0  0  0  0  0
    1.5000    0.0000    0.0000 C   0  0  0  0  0  0  0  0  0  0  0  0
    0.7500    1.2990    0.0000 C   0  0  0  0  0  0  0  0  0  0  0  0
   -0.7500    1.2990    0.0000 C   0  0  0  0  0  0  0  0  0  0  0  0
   -1.5000    0.0000    0.0000 C   0  0  0  0  0  0  0  0  0  0  0  0
   -0.7500   -1.2990    0.0000 C   0  0  0  0  0  0  0  0  0  0  0  0
    2.7990   -1.8481    0.0000 C   0  0  0  0  0  0  0  0  0  0  0  0
    4.0981   -2.5981    0.0000 C   0  0  0  0  0  0  0  0  0  0  0  0
    5.3971   -1.8481    0.0000 C   0  0  0  0  0  0  0  0  0  0  0  0
    5.3971   -0.3481    0.0000 C   0  0  0  0  0  0  0  0  0  0  0  0
    4.0981    0.4019    0.0000 C   0  0  0  0  0  0  0  0  0  0  0  0
    2.7990   -0.3481    0.0000 C   0  0  0  0  0  0  0  0  0  0  0  0
  2  3  1  0
  3  4  1  0
  4  5  1  0
  5  6  1  0
  4  7  1  0
  7  8  1  0
  4  9  1  0
  9 10  1  0
 10 11  1  0
 11 12  1  0
 11 13  1  0
 13 14  1  0
 14 15  1  0
 15 16  1  0
 16 17  1  0
 17 18  1  0
 11 19  1  0
 19 20  2  0
 20 21  1  0
 21 22  2  0
 22 23  1  0
 23 24  2  0
 18 13  1  0
 24 19  1  0
M  CHG  2   1  -1   4   1
M  END
$$$$
675081
     RDKit          2D

  9  7  0  0  0  0  0  0  0  0999 V2000
    3.7990    0.0000    0.0000 Cl  0  0  0  0  0 15  0  0  0  0  0  0
    0.0000    0.0000    0.0000 C   0  0  0  0  0  0  0  0  0  0  0  0
    1.2990    0.7500    0.0000 N   0  0  0  0  0  4  0  0  0  0  0  0
    2.5981    1.5000    0.0000 C   0  0  0  0  0  0  0  0  0  0  0  0
    2.0490   -0.5490    0.0000 C   0  0  0  0  0  0  0  0  0  0  0  0
    0.5490    2.0490    0.0000 C   0  0  0  0  0  0  0  0  0  0  0  0
    1.2990    3.3481    0.0000 C   0  0  0  0  0  0  0  0  0  0  0  0
    2.7990    3.3481    0.0000 O   0  0  0  0  0  0  0  0  0  0  0  0
    0.5490    4.6471    0.0000 O   0  0  0  0  0  0  0  0  0  0  0  0
  2  3  1  0
  3  4  1  0
  3  5  1  0
  3  6  1  0
  6  7  1  0
  7  8  2  0
  7  9  1  0
M  CHG  2   1  -1   3   1
M  END
$$$$
39624
     RDKit          2D

 11 10  0  0  0  0  0  0  0  0999 V2000
    0.0000    4.8971    0.0000 Cl  0  0  0  0  0 15  0  0  0  0  0  0
    3.0000    0.0000    0.0000 C   0  0  0  0  0  0  0  0  0  0  0  0
    1.5000    0.0000    0.0000 N   0  0  0  0  0  4  0  0  0  0  0  0
    0.7500   -1.2990    0.0000 C   0  0  0  0  0  0  0  0  0  0  0  0
   -0.7500   -1.2990    0.0000 C   0  0  0  0  0  0  0  0  0  0  0  0
   -1.5000    0.0000    0.0000 C   0  0  0  0  0  0  0  0  0  0  0  0
   -0.7500    1.2990    0.0000 C   0  0  0  0  0  0  0  0  0  0  0  0
    0.7500    1.2990    0.0000 C   0  0  0  0  0  0  0  0  0  0  0  0
    1.5000    2.5981    0.0000 C   0  0  0  0  0  0  0  0  0  0  0  0
    3.0000    2.5981    0.0000 N   0  0  0  0  0  0  0  0  0  0  0  0
    3.7500    3.8971    0.0000 O   0  0  0  0  0  0  0  0  0  0  0  0
  2  3  1  0
  3  4  2  0
  4  5  1  0
  5  6  2  0
  6  7  1  0
  7  8  2  0
  8  9  1  0
  9 10  2  0
 10 11  1  0
  8  3  1  0
M  CHG  2   1  -1   3   1
M  END
$$$$
1594639
     RDKit          2D

 30 33  0  0  0  0  0  0  0  0999 V2000
    8.9954    0.0000    0.0000 Cl  0  0  0  0  0 15  0  0  0  0  0  0
    4.1791    8.6583    0.0000 O   0  0  0  0  0  0  0  0  0  0  0  0
    3.7156    7.2317    0.0000 C   0  0  0  0  0  0  0  0  0  0  0  0
    3.2521    5.8051    0.0000 C   0  0  0  0  0  0  0  0  0  0  0  0
    4.2558    4.6904    0.0000 O   0  0  0  0  0  0  0  0  0  0  0  0
    1.7849    5.4933    0.0000 O   0  0  0  0  0  0  0  0  0  0  0  0
    1.3213    4.0667    0.0000 C   0  0  0  0  0  0  0  0  0  0  0  0
   -0.1459    3.7548    0.0000 C   0  0  0  0  0  0  0  0  0  0  0  0
   -0.6094    2.3282    0.0000 C   0  0  0  0  0  0  0  0  0  0  0  0
    0.4886    2.8760    0.0000 C   0  0  0  0  0  0  0  0  0  0  0  0
    1.1686    2.6213    0.0000 C   0  0  0  0  0  0  0  0  0  0  0  0
    1.8615    1.5254    0.0000 C   0  0  0  0  0  0  0  0  0  0  0  0
    2.3250    2.9520    0.0000 C   0  0  0  0  0  0  0  0  0  0  0  0
    0.3943    1.2135    0.0000 N   0  0  0  0  0  4  0  0  0  0  0  0
    1.2760    0.0000    0.0000 C   0  0  0  0  0  0  0  0  0  0  0  0
    0.3943   -1.2135    0.0000 C   0  0  0  0  0  0  0  0  0  0  0  0
   -1.0323   -0.7500    0.0000 C   0  0  0  0  0  0  0  0  0  0  0  0
   -1.0323    0.7500    0.0000 C   0  0  0  0  0  0  0  0  0  0  0  0
    2.2890    7.6953    0.0000 C   0  0  0  0  0  0  0  0  0  0  0  0
    1.9772    9.1625    0.0000 C   0  0  0  0  0  0  0  0  0  0  0  0
    0.5506    9.6260    0.0000 C   0  0  0  0  0  0  0  0  0  0  0  0
   -0.5641    8.6223    0.0000 C   0  0  0  0  0  0  0  0  0  0  0  0
   -0.2523    7.1551    0.0000 C   0  0  0  0  0  0  0  0  0  0  0  0
    1.1743    6.6916    0.0000 C   0  0  0  0  0  0  0  0  0  0  0  0
    5.1422    6.7682    0.0000 C   0  0  0  0  0  0  0  0  0  0  0  0
    5.4541    5.3010    0.0000 C   0  0  0  0  0  0  0  0  0  0  0  0
    6.8807    4.8375    0.0000 C   0  0  0  0  0  0  0  0  0  0  0  0
    7.9954    5.8412    0.0000 C   0  0  0  0  0  0  0  0  0  0  0  0
    7.6835    7.3084    0.0000 C   0  0  0  0  0  0  0  0  0  0  0  0
    6.2569    7.7719    0.0000 C   0  0  0  0  0  0  0  0  0  0  0  0
  2  3  1  0
  3  4  1  0
  4  5  2  0
  4  6  1  0
  7  6  1  6
  7  8  1  0
  9  8  1  1
  9 10  1  0
 10 11  1  0
 12 11  1  6
 12 13  1  0
 12 14  1  0
 14 15  1  0
 15 16  1  0
 16 17  1  0
 17 18  1  0
  3 19  1  0
 19 20  2  0
 20 21  1  0
 21 22  2  0
 22 23  1  0
 23 24  2  0
  3 25  1  0
 25 26  2  0
 26 27  1  0
 27 28  2  0
 28 29  1  0
 29 30  2  0
 13  7  1  0
 14  9  1  0
 18 14  1  0
 24 19  1  0
 30 25  1  0
M  CHG  2   1  -1  14   1
M  END
$$$$
674492
     RDKit          2D

 38 37  0  0  0  0  0  0  0  0999 V2000
    0.0000    2.2990    0.0000 Cl  0  0  0  0  0 15  0  0  0  0  0  0
    3.0490    0.0000    0.0000 Cl  0  0  0  0  0 15  0  0  0  0  0  0
  -10.2990   -8.1423    0.0000 C   0  0  0  0  0  0  0  0  0  0  0  0
  -10.2990   -9.6423    0.0000 C   0  0  0  0  0  0  0  0  0  0  0  0
   -9.0000  -10.3923    0.0000 N   0  0  0  0  0  4  0  0  0  0  0  0
   -7.7010  -11.1423    0.0000 C   0  0  0  0  0  0  0  0  0  0  0  0
   -7.7010  -12.6423    0.0000 C   0  0  0  0  0  0  0  0  0  0  0  0
   -8.2500   -9.0933    0.0000 C   0  0  0  0  0  0  0  0  0  0  0  0
   -6.7500   -9.0933    0.0000 C   0  0  0  0  0  0  0  0  0  0  0  0
   -6.0000   -7.7942    0.0000 N   0  0  0  0  0  0  0  0  0  0  0  0
   -4.5000   -7.7942    0.0000 C   0  0  0  0  0  0  0  0  0  0  0  0
   -3.7500   -9.0933    0.0000 O   0  0  0  0  0  0  0  0  0  0  0  0
   -3.7500   -6.4952    0.0000 C   0  0  0  0  0  0  0  0  0  0  0  0
   -4.5000   -5.1962    0.0000 O   0  0  0  0  0  0  0  0  0  0  0  0
   -2.2500   -6.4952    0.0000 N   0  0  0  0  0  0  0  0  0  0  0  0
   -1.5000   -5.1962    0.0000 C   0  0  0  0  0  0  0  0  0  0  0  0
   -0.0000   -5.1962    0.0000 C   0  0  0  0  0  0  0  0  0  0  0  0
    0.7500   -3.8971    0.0000 N   0  0  0  0  0  4  0  0  0  0  0  0
   -0.5490   -3.1471    0.0000 C   0  0  0  0  0  0  0  0  0  0  0  0
   -1.8481   -3.8971    0.0000 C   0  0  0  0  0  0  0  0  0  0  0  0
    2.0490   -4.6471    0.0000 C   0  0  0  0  0  0  0  0  0  0  0  0
    2.0490   -6.1471    0.0000 C   0  0  0  0  0  0  0  0  0  0  0  0
    1.5000   -2.5981    0.0000 C   0  0  0  0  0  0  0  0  0  0  0  0
    0.7500   -1.2990    0.0000 C   0  0  0  0  0  0  0  0  0  0  0  0
    1.5000    0.0000    0.0000 C   0  0  0  0  0  0  0  0  0  0  0  0
    0.7500    1.2990    0.0000 C   0  0  0  0  0  0  0  0  0  0  0  0
   -0.7500    1.2990    0.0000 C   0  0  0  0  0  0  0  0  0  0  0  0
   -1.5000    0.0000    0.0000 C   0  0  0  0  0  0  0  0  0  0  0  0
   -0.7500   -1.2990    0.0000 C   0  0  0  0  0  0  0  0  0  0  0  0
   -1.5000   -2.5981    0.0000 Cl  0  0  0  0  0  0  0  0  0  0  0  0
   -9.7500  -11.6913    0.0000 C   0  0  0  0  0  0  0  0  0  0  0  0
  -11.2500  -11.6913    0.0000 C   0  0  0  0  0  0  0  0  0  0  0  0
  -12.0000  -10.3923    0.0000 C   0  0  0  0  0  0  0  0  0  0  0  0
  -13.5000  -10.3923    0.0000 C   0  0  0  0  0  0  0  0  0  0  0  0
  -14.2500  -11.6913    0.0000 C   0  0  0  0  0  0  0  0  0  0  0  0
  -13.5000  -12.9904    0.0000 C   0  0  0  0  0  0  0  0  0  0  0  0
  -12.0000  -12.9904    0.0000 C   0  0  0  0  0  0  0  0  0  0  0  0
  -11.2500  -14.2894    0.0000 Cl  0  0  0  0  0  0  0  0  0  0  0  0
  3  4  1  0
  4  5  1  0
  5  6  1  0
  6  7  1  0
  5  8  1  0
  8  9  1  0
  9 10  1  0
 10 11  1  0
 11 12  2  0
 11 13  1  0
 13 14  2  0
 13 15  1  0
 15 16  1  0
 16 17  1  0
 17 18  1  0
 18 19  1  0
 19 20  1  0
 18 21  1  0
 21 22  1  0
 18 23  1  0
 23 24  1  0
 24 25  2  0
 25 26  1  0
 26 27  2  0
 27 28  1  0
 28 29  2  0
 29 30  1  0
  5 31  1  0
 31 32  1  0
 32 33  2  0
 33 34  1  0
 34 35  2  0
 35 36  1  0
 36 37  2  0
 37 38  1  0
 29 24  1  0
 37 32  1  0
M  CHG  4   1  -1   2  -1   5   1  18   1
M  END
$$$$
674298
     RDKit          2D

 27 27  0  0  0  0  0  0  0  0999 V2000
    8.0981    0.0000    0.0000 I   0  0  0  0  0 15  0  0  0  0  0  0
    3.2010   -7.4462    0.0000 C   0  0  0  0  0  0  0  0  0  0  0  0
    3.2010   -5.9462    0.0000 C   0  0  0  0  0  0  0  0  0  0  0  0
    1.9019   -5.1962    0.0000 C   0  0  0  0  0  0  0  0  0  0  0  0
    4.5000   -5.1962    0.0000 N   0  0  0  0  0  4  0  0  0  0  0  0
    5.2500   -6.4952    0.0000 C   0  0  0  0  0  0  0  0  0  0  0  0
    3.7500   -3.8971    0.0000 C   0  0  0  0  0  0  0  0  0  0  0  0
    2.2500   -3.8971    0.0000 C   0  0  0  0  0  0  0  0  0  0  0  0
    1.5000   -2.5981    0.0000 C   0  0  0  0  0  0  0  0  0  0  0  0
    0.2010   -3.3481    0.0000 C   0  0  0  0  0  0  0  0  0  0  0  0
   -1.0981   -2.5981    0.0000 O   0  0  0  0  0  0  0  0  0  0  0  0
    0.2010   -4.8481    0.0000 N   0  0  0  0  0  0  0  0  0  0  0  0
    0.7500   -1.2990    0.0000 C   0  0  0  0  0  0  0  0  0  0  0  0
    1.5000    0.0000    0.0000 C   0  0  0  0  0  0  0  0  0  0  0  0
    0.7500    1.2990    0.0000 C   0  0  0  0  0  0  0  0  0  0  0  0
   -0.7500    1.2990    0.0000 C   0  0  0  0  0  0  0  0  0  0  0  0
   -1.5000    0.0000    0.0000 C   0  0  0  0  0  0  0  0  0  0  0  0
   -0.7500   -1.2990    0.0000 C   0  0  0  0  0  0  0  0  0  0  0  0
    2.7990   -1.8481    0.0000 C   0  0  0  0  0  0  0  0  0  0  0  0
    4.0981   -2.5981    0.0000 C   0  0  0  0  0  0  0  0  0  0  0  0
    5.3971   -1.8481    0.0000 C   0  0  0  0  0  0  0  0  0  0  0  0
    5.3971   -0.3481    0.0000 C   0  0  0  0  0  0  0  0  0  0  0  0
    4.0981    0.4019    0.0000 C   0  0  0  0  0  0  0  0  0  0  0  0
    2.7990   -0.3481    0.0000 C   0  0  0  0  0  0  0  0  0  0  0  0
    5.7990   -4.4462    0.0000 C   0  0  0  0  0  0  0  0  0  0  0  0
    7.0981   -5.1962    0.0000 C   0  0  0  0  0  0  0  0  0  0  0  0
    5.7990   -2.9462    0.0000 C   0  0  0  0  0  0  0  0  0  0  0  0
  2  3  1  0
  3  4  1  0
  3  5  1  0
  5  6  1  0
  5  7  1  0
  7  8  1  0
  8  9  1  0
  9 10  1  0
 10 11  2  0
 10 12  1  0
  9 13  1  0
 13 14  2  0
 14 15  1  0
 15 16  2  0
 16 17  1  0
 17 18  2  0
  9 19  1  0
 19 20  2  0
 20 21  1  0
 21 22  2  0
 22 23  1  0
 23 24  2  0
  5 25  1  0
 25 26  1  0
 25 27  1  0
 18 13  1  0
 24 19  1  0
M  CHG  2   1  -1   5   1
M  END
$$$$
674723
     RDKit          2D

 24 25  0  0  0  0  0  0  0  0999 V2000
    7.0000    0.0000    0.0000 K   0  0  0  0  0 15  0  0  0  0  0  0
    0.7500   -9.0933    0.0000 C   0  0  0  0  0  0  0  0  0  0  0  0
    1.5000   -7.7942    0.0000 C   0  0  0  0  0  0  0  0  0  0  0  0
    3.0000   -7.7942    0.0000 O   0  0  0  0  0  0  0  0  0  0  0  0
    0.7500   -6.4952    0.0000 C   0  0  0  0  0  0  0  0  0  0  0  0
    1.5000   -5.1962    0.0000 C   0  0  0  0  0  0  0  0  0  0  0  0
    0.7500   -3.8971    0.0000 C   0  0  0  0  0  0  0  0  0  0  0  0
    1.5000   -2.5981    0.0000 C   0  0  0  0  0  0  0  0  0  0  0  0
    3.0000   -2.5981    0.0000 O   0  0  0  0  0  1  0  0  0  0  0  0
    0.7500   -1.2990    0.0000 C   0  0  0  0  0  0  0  0  0  0  0  0
    1.5000    0.0000    0.0000 C   0  0  0  0  0  0  0  0  0  0  0  0
    0.7500    1.2990    0.0000 C   0  0  0  0  0  0  0  0  0  0  0  0
   -0.7500    1.2990    0.0000 C   0  0  0  0  0  0  0  0  0  0  0  0
   -1.5000    0.0000    0.0000 C   0  0  0  0  0  0  0  0  0  0  0  0
   -0.7500   -1.2990    0.0000 C   0  0  0  0  0  0  0  0  0  0  0  0
   -1.5000   -2.5981    0.0000 O   0  0  0  0  0  0  0  0  0  0  0  0
   -0.7500   -3.8971    0.0000 C   0  0  0  0  0  0  0  0  0  0  0  0
   -1.5000   -5.1962    0.0000 O   0  0  0  0  0  0  0  0  0  0  0  0
    3.0000   -5.1962    0.0000 C   0  0  0  0  0  0  0  0  0  0  0  0
    3.7500   -6.4952    0.0000 C   0  0  0  0  0  0  0  0  0  0  0  0
    5.2500   -6.4952    0.0000 C   0  0  0  0  0  0  0  0  0  0  0  0
    6.0000   -5.1962    0.0000 C   0  0  0  0  0  0  0  0  0  0  0  0
    5.2500   -3.8971    0.0000 C   0  0  0  0  0  0  0  0  0  0  0  0
    3.7500   -3.8971    0.0000 C   0  0  0  0  0  0  0  0  0  0  0  0
  2  3  1  0
  3  4  2  0
  3  5  1  0
  5  6  1  0
  6  7  1  0
  7  8  2  0
  8  9  1  0
  8 10  1  0
 10 11  2  0
 11 12  1  0
 12 13  2  0
 13 14  1  0
 14 15  2  0
 15 16  1  0
 16 17  1  0
 17 18  2  0
  6 19  1  0
 19 20  2  0
 20 21  1  0
 21 22  2  0
 22 23  1  0
 23 24  2  0
 17  7  1  0
 15 10  1  0
 24 19  1  0
M  CHG  2   1   1   9  -1
M  END
$$$$
675072
     RDKit          2D

 28 30  0  0  0  0  0  0  0  0999 V2000
    0.0000    5.7822    0.0000 K   0  0  0  0  0 15  0  0  0  0  0  0
    2.3907    1.0037    0.0000 C   0  0  0  0  0  0  0  0  0  0  0  0
    1.2760    0.0000    0.0000 C   0  0  0  0  0  0  0  0  0  0  0  0
    2.3907   -1.0037    0.0000 C   0  0  0  0  0  0  0  0  0  0  0  0
    0.3943    1.2135    0.0000 S   0  0  0  0  0  0  0  0  0  0  0  0
   -1.0323    0.7500    0.0000 C   0  0  0  0  0  0  0  0  0  0  0  0
   -2.5323    0.7500    0.0000 C   0  0  0  0  0  0  0  0  0  0  0  0
   -3.5929    1.8107    0.0000 N   0  0  0  0  0  0  0  0  0  0  0  0
   -5.0745    1.5760    0.0000 C   0  0  0  0  0  0  0  0  0  0  0  0
   -5.7555    0.2395    0.0000 O   0  0  0  0  0  0  0  0  0  0  0  0
   -5.7555    2.9125    0.0000 C   0  0  0  0  0  0  0  0  0  0  0  0
   -4.6948    3.9732    0.0000 N   0  0  0  0  0  0  0  0  0  0  0  0
   -3.3583    3.2922    0.0000 C   0  0  0  0  0  0  0  0  0  0  0  0
   -2.8207    4.6926    0.0000 C   0  0  0  0  0  0  0  0  0  0  0  0
   -1.9094    2.9040    0.0000 C   0  0  0  0  0  0  0  0  0  0  0  0
   -7.2370    3.1472    0.0000 C   0  0  0  0  0  0  0  0  0  0  0  0
   -7.7745    4.5475    0.0000 C   0  0  0  0  0  0  0  0  0  0  0  0
   -9.2561    4.7822    0.0000 C   0  0  0  0  0  0  0  0  0  0  0  0
  -10.2001    3.6165    0.0000 C   0  0  0  0  0  0  0  0  0  0  0  0
   -9.6625    2.2161    0.0000 C   0  0  0  0  0  0  0  0  0  0  0  0
   -8.1810    1.9815    0.0000 C   0  0  0  0  0  0  0  0  0  0  0  0
   -2.5323   -0.7500    0.0000 C   0  0  0  0  0  0  0  0  0  0  0  0
   -3.5929   -1.8107    0.0000 O   0  0  0  0  0  0  0  0  0  0  0  0
   -1.0323   -0.7500    0.0000 N   0  0  0  0  0  0  0  0  0  0  0  0
    0.3943   -1.2135    0.0000 C   0  0  0  0  0  0  0  0  0  0  0  0
    0.8578   -2.6401    0.0000 C   0  0  0  0  0  0  0  0  0  0  0  0
    2.3250   -2.9520    0.0000 O   0  0  0  0  0  0  0  0  0  0  0  0
   -0.1459   -3.7548    0.0000 O   0  0  0  0  0  1  0  0  0  0  0  0
  2  3  1  0
  3  4  1  0
  3  5  1  0
  6  5  1  1
  6  7  1  0
  7  8  1  1
  8  9  1  0
  9 10  2  0
  9 11  1  0
 11 12  1  0
 12 13  1  0
 13 14  1  0
 13 15  1  0
 11 16  1  1
 16 17  2  0
 17 18  1  0
 18 19  2  0
 19 20  1  0
 20 21  2  0
  7 22  1  0
 22 23  2  0
 22 24  1  0
 24 25  1  0
 25 26  1  6
 26 27  2  0
 26 28  1  0
 25  3  1  0
 24  6  1  0
 13  8  1  0
 21 16  1  0
M  CHG  2   1   1  28  -1
M  END
$$$$
226400
     RDKit          2D

 24 25  0  0  0  0  0  0  0  0999 V2000
    3.3907    0.0000    0.0000 K   0  0  0  0  0 15  0  0  0  0  0  0
    2.3907    1.0037    0.0000 C   0  0  0  0  0  0  0  0  0  0  0  0
    1.2760    0.0000    0.0000 C   0  0  0  0  0  0  0  0  0  0  0  0
    2.3907   -1.0037    0.0000 C   0  0  0  0  0  0  0  0  0  0  0  0
    0.3943    1.2135    0.0000 S   0  0  0  0  0  0  0  0  0  0  0  0
   -1.0323    0.7500    0.0000 C   0  0  0  0  0  0  0  0  0  0  0  0
   -2.5323    0.7500    0.0000 C   0  0  0  0  0  0  0  0  0  0  0  0
   -3.5929    1.8107    0.0000 N   0  0  0  0  0  0  0  0  0  0  0  0
   -3.2047    3.2595    0.0000 C   0  0  0  0  0  0  0  0  0  0  0  0
   -1.7558    3.6478    0.0000 O   0  0  0  0  0  0  0  0  0  0  0  0
   -4.2654    4.3202    0.0000 C   0  0  0  0  0  0  0  0  0  0  0  0
   -3.8771    5.7691    0.0000 C   0  0  0  0  0  0  0  0  0  0  0  0
   -2.4283    6.1573    0.0000 C   0  0  0  0  0  0  0  0  0  0  0  0
   -2.0400    7.6062    0.0000 C   0  0  0  0  0  0  0  0  0  0  0  0
   -3.1007    8.6669    0.0000 C   0  0  0  0  0  0  0  0  0  0  0  0
   -4.5496    8.2786    0.0000 C   0  0  0  0  0  0  0  0  0  0  0  0
   -4.9378    6.8298    0.0000 C   0  0  0  0  0  0  0  0  0  0  0  0
   -2.5323   -0.7500    0.0000 C   0  0  0  0  0  0  0  0  0  0  0  0
   -3.5929   -1.8107    0.0000 O   0  0  0  0  0  0  0  0  0  0  0  0
   -1.0323   -0.7500    0.0000 N   0  0  0  0  0  0  0  0  0  0  0  0
    0.3943   -1.2135    0.0000 C   0  0  0  0  0  0  0  0  0  0  0  0
    0.8578   -2.6401    0.0000 C   0  0  0  0  0  0  0  0  0  0  0  0
    2.3250   -2.9520    0.0000 O   0  0  0  0  0  0  0  0  0  0  0  0
   -0.1459   -3.7548    0.0000 O   0  0  0  0  0  1  0  0  0  0  0  0
  2  3  1  0
  3  4  1  0
  3  5  1  0
  6  5  1  1
  6  7  1  0
  7  8  1  1
  8  9  1  0
  9 10  2  0
  9 11  1  0
 11 12  1  0
 12 13  2  0
 13 14  1  0
 14 15  2  0
 15 16  1  0
 16 17  2  0
  7 18  1  0
 18 19  2  0
 18 20  1  0
 20 21  1  0
 21 22  1  6
 22 23  2  0
 22 24  1  0
 21  3  1  0
 20  6  1  0
 17 12  1  0
M  CHG  2   1   1  24  -1
M  END
$$$$
674803
     RDKit          2D

 25 26  0  0  0  0  0  0  0  0999 V2000
    3.3907    0.0000    0.0000 K   0  0  0  0  0 15  0  0  0  0  0  0
    2.3907    1.0037    0.0000 C   0  0  0  0  0  0  0  0  0  0  0  0
    1.2760    0.0000    0.0000 C   0  0  0  0  0  0  0  0  0  0  0  0
    2.3907   -1.0037    0.0000 C   0  0  0  0  0  0  0  0  0  0  0  0
    0.3943    1.2135    0.0000 S   0  0  0  0  0  0  0  0  0  0  0  0
   -1.0323    0.7500    0.0000 C   0  0  0  0  0  0  0  0  0  0  0  0
   -2.5323    0.7500    0.0000 C   0  0  0  0  0  0  0  0  0  0  0  0
   -3.5929    1.8107    0.0000 N   0  0  0  0  0  0  0  0  0  0  0  0
   -3.2047    3.2595    0.0000 C   0  0  0  0  0  0  0  0  0  0  0  0
   -1.7558    3.6478    0.0000 O   0  0  0  0  0  0  0  0  0  0  0  0
   -4.2654    4.3202    0.0000 C   0  0  0  0  0  0  0  0  0  0  0  0
   -3.8771    5.7691    0.0000 O   0  0  0  0  0  0  0  0  0  0  0  0
   -4.9378    6.8298    0.0000 C   0  0  0  0  0  0  0  0  0  0  0  0
   -4.5496    8.2786    0.0000 C   0  0  0  0  0  0  0  0  0  0  0  0
   -5.6102    9.3393    0.0000 C   0  0  0  0  0  0  0  0  0  0  0  0
   -7.0591    8.9511    0.0000 C   0  0  0  0  0  0  0  0  0  0  0  0
   -7.4474    7.5022    0.0000 C   0  0  0  0  0  0  0  0  0  0  0  0
   -6.3867    6.4415    0.0000 C   0  0  0  0  0  0  0  0  0  0  0  0
   -2.5323   -0.7500    0.0000 C   0  0  0  0  0  0  0  0  0  0  0  0
   -3.5929   -1.8107    0.0000 O   0  0  0  0  0  0  0  0  0  0  0  0
   -1.0323   -0.7500    0.0000 N   0  0  0  0  0  0  0  0  0  0  0  0
    0.3943   -1.2135    0.0000 C   0  0  0  0  0  0  0  0  0  0  0  0
    0.8578   -2.6401    0.0000 C   0  0  0  0  0  0  0  0  0  0  0  0
    2.3250   -2.9520    0.0000 O   0  0  0  0  0  0  0  0  0  0  0  0
   -0.1459   -3.7548    0.0000 O   0  0  0  0  0  1  0  0  0  0  0  0
  2  3  1  0
  3  4  1  0
  3  5  1  0
  6  5  1  1
  6  7  1  0
  7  8  1  1
  8  9  1  0
  9 10  2  0
  9 11  1  0
 11 12  1  0
 12 13  1  0
 13 14  2  0
 14 15  1  0
 15 16  2  0
 16 17  1  0
 17 18  2  0
  7 19  1  0
 19 20  2  0
 19 21  1  0
 21 22  1  0
 22 23  1  6
 23 24  2  0
 23 25  1  0
 22  3  1  0
 21  6  1  0
 18 13  1  0
M  CHG  2   1   1  25  -1
M  END
$$$$
109797
     RDKit          2D

 31 33  0  0  0  0  0  0  0  0999 V2000
    4.2909    0.0000    0.0000 K   0  0  0  0  0 15  0  0  0  0  0  0
   -5.6836   -2.4482    0.0000 C   0  0  0  0  0  0  0  0  0  0  0  0
   -4.2164   -2.1363    0.0000 C   0  0  0  0  0  0  0  0  0  0  0  0
   -3.2127   -3.2511    0.0000 C   0  0  0  0  0  0  0  0  0  0  0  0
   -1.7455   -2.9392    0.0000 C   0  0  0  0  0  0  0  0  0  0  0  0
   -0.7418   -4.0539    0.0000 C   0  0  0  0  0  0  0  0  0  0  0  0
   -1.0537   -5.5211    0.0000 N   0  0  0  0  0  0  0  0  0  0  0  0
    0.2454   -6.2711    0.0000 C   0  0  0  0  0  0  0  0  0  0  0  0
    0.4022   -7.7629    0.0000 Cl  0  0  0  0  0  0  0  0  0  0  0  0
    1.3601   -5.2674    0.0000 C   0  0  0  0  0  0  0  0  0  0  0  0
    2.8273   -5.5793    0.0000 C   0  0  0  0  0  0  0  0  0  0  0  0
    3.2909   -7.0059    0.0000 O   0  0  0  0  0  0  0  0  0  0  0  0
    0.7500   -3.8971    0.0000 N   0  0  0  0  0  0  0  0  0  0  0  0
    1.5000   -2.5981    0.0000 C   0  0  0  0  0  0  0  0  0  0  0  0
    0.7500   -1.2990    0.0000 C   0  0  0  0  0  0  0  0  0  0  0  0
    1.5000    0.0000    0.0000 C   0  0  0  0  0  0  0  0  0  0  0  0
    0.7500    1.2990    0.0000 C   0  0  0  0  0  0  0  0  0  0  0  0
   -0.7500    1.2990    0.0000 C   0  0  0  0  0  0  0  0  0  0  0  0
   -1.5000    0.0000    0.0000 C   0  0  0  0  0  0  0  0  0  0  0  0
   -0.7500   -1.2990    0.0000 C   0  0  0  0  0  0  0  0  0  0  0  0
   -1.5000    2.5981    0.0000 C   0  0  0  0  0  0  0  0  0  0  0  0
   -0.7500    3.8971    0.0000 C   0  0  0  0  0  0  0  0  0  0  0  0
   -1.5000    5.1962    0.0000 C   0  0  0  0  0  0  0  0  0  0  0  0
   -3.0000    5.1962    0.0000 C   0  0  0  0  0  0  0  0  0  0  0  0
   -3.7500    3.8971    0.0000 C   0  0  0  0  0  0  0  0  0  0  0  0
   -3.0000    2.5981    0.0000 C   0  0  0  0  0  0  0  0  0  0  0  0
   -3.7500    1.2990    0.0000 C   0  0  0  0  0  0  0  0  0  0  0  0
   -3.1399   -0.0713    0.0000 N   0  0  0  0  0  0  0  0  0  0  0  0
   -4.2546   -1.0750    0.0000 N   0  0  0  0  0  0  0  0  0  0  0  0
   -5.5537   -0.3250    0.0000 N   0  0  0  0  0  2  0  0  0  0  0  0
   -5.2418    1.1422    0.0000 N   0  0  0  0  0  0  0  0  0  0  0  0
  2  3  1  0
  3  4  1  0
  4  5  1  0
  5  6  1  0
  6  7  2  0
  7  8  1  0
  8  9  1  0
  8 10  2  0
 10 11  1  0
 11 12  1  0
 10 13  1  0
 13 14  1  0
 14 15  1  0
 15 16  2  0
 16 17  1  0
 17 18  2  0
 18 19  1  0
 19 20  2  0
 18 21  1  0
 21 22  2  0
 22 23  1  0
 23 24  2  0
 24 25  1  0
 25 26  2  0
 26 27  1  0
 27 28  1  0
 28 29  2  0
 29 30  1  0
 30 31  1  0
 13  6  1  0
 20 15  1  0
 26 21  1  0
 31 27  2  0
M  CHG  2   1   1  30  -1
M  END
$$$$
1376065
     RDKit          2D

 43 47  0  0  0  0  0  0  0  0999 V2000
    2.5000    0.0000    0.0000 K   0  0  0  0  0 15  0  0  0  0  0  0
    1.2990   -7.3573    0.0000 C   0  0  0  0  0  0  0  0  0  0  0  0
    1.2990   -5.8573    0.0000 C   0  0  0  0  0  0  0  0  0  0  0  0
   -0.0000   -5.1073    0.0000 O   0  0  0  0  0  0  0  0  0  0  0  0
   -0.0000   -3.6073    0.0000 C   0  0  0  0  0  0  0  0  0  0  0  0
    1.2135   -2.7256    0.0000 N   0  0  0  0  0  0  0  0  0  0  0  0
    0.7500   -1.2990    0.0000 C   0  0  0  0  0  0  0  0  0  0  0  0
    1.5000    0.0000    0.0000 C   0  0  0  0  0  0  0  0  0  0  0  0
    0.7500    1.2990    0.0000 C   0  0  0  0  0  0  0  0  0  0  0  0
   -0.7500    1.2990    0.0000 C   0  0  0  0  0  0  0  0  0  0  0  0
   -1.5000    0.0000    0.0000 C   0  0  0  0  0  0  0  0  0  0  0  0
   -3.0000    0.0000    0.0000 C   0  0  0  0  0  0  0  0  0  0  0  0
   -3.7500   -1.2990    0.0000 O   0  0  0  0  0  0  0  0  0  0  0  0
   -3.7500    1.2990    0.0000 O   0  0  0  0  0  0  0  0  0  0  0  0
   -5.2500    1.2990    0.0000 C   0  0  0  0  0  0  0  0  0  0  0  0
   -6.0000    2.5981    0.0000 C   0  0  0  0  0  0  0  0  0  0  0  0
   -7.4918    2.7549    0.0000 C   0  0  0  0  0  0  0  0  0  0  0  0
   -8.4955    1.6402    0.0000 C   0  0  0  0  0  0  0  0  0  0  0  0
   -7.8037    4.2221    0.0000 O   0  0  0  0  0  0  0  0  0  0  0  0
   -6.5046    4.9721    0.0000 C   0  0  0  0  0  0  0  0  0  0  0  0
   -6.3478    6.4639    0.0000 O   0  0  0  0  0  0  0  0  0  0  0  0
   -5.3899    3.9684    0.0000 O   0  0  0  0  0  0  0  0  0  0  0  0
   -0.7500   -1.2990    0.0000 C   0  0  0  0  0  0  0  0  0  0  0  0
   -1.2135   -2.7256    0.0000 N   0  0  0  0  0  0  0  0  0  0  0  0
   -2.6401   -3.1891    0.0000 C   0  0  0  0  0  0  0  0  0  0  0  0
   -2.9520   -4.6564    0.0000 C   0  0  0  0  0  0  0  0  0  0  0  0
   -1.8373   -5.6601    0.0000 C   0  0  0  0  0  0  0  0  0  0  0  0
   -2.1491   -7.1273    0.0000 C   0  0  0  0  0  0  0  0  0  0  0  0
   -3.5757   -7.5908    0.0000 C   0  0  0  0  0  0  0  0  0  0  0  0
   -4.6904   -6.5871    0.0000 C   0  0  0  0  0  0  0  0  0  0  0  0
   -4.3786   -5.1199    0.0000 C   0  0  0  0  0  0  0  0  0  0  0  0
   -3.8876   -9.0580    0.0000 C   0  0  0  0  0  0  0  0  0  0  0  0
   -2.7729  -10.0617    0.0000 C   0  0  0  0  0  0  0  0  0  0  0  0
   -3.0847  -11.5290    0.0000 C   0  0  0  0  0  0  0  0  0  0  0  0
   -4.5113  -11.9925    0.0000 C   0  0  0  0  0  0  0  0  0  0  0  0
   -5.6260  -10.9888    0.0000 C   0  0  0  0  0  0  0  0  0  0  0  0
   -5.3142   -9.5216    0.0000 C   0  0  0  0  0  0  0  0  0  0  0  0
   -6.4289   -8.5179    0.0000 C   0  0  0  0  0  0  0  0  0  0  0  0
   -6.2721   -7.0261    0.0000 N   0  0  0  0  0  0  0  0  0  0  0  0
   -7.6424   -6.4160    0.0000 O   0  0  0  0  0  0  0  0  0  0  0  0
   -8.6461   -7.5307    0.0000 C   0  0  0  0  0  0  0  0  0  0  0  0
  -10.1379   -7.3739    0.0000 O   0  0  0  0  0  0  0  0  0  0  0  0
   -7.8961   -8.8297    0.0000 N   0  0  0  0  0  2  0  0  0  0  0  0
  2  3  1  0
  3  4  1  0
  4  5  1  0
  5  6  2  0
  6  7  1  0
  7  8  2  0
  8  9  1  0
  9 10  2  0
 10 11  1  0
 11 12  1  0
 12 13  2  0
 12 14  1  0
 14 15  1  0
 15 16  1  0
 16 17  2  0
 17 18  1  0
 17 19  1  0
 19 20  1  0
 20 21  2  0
 20 22  1  0
 11 23  2  0
 23 24  1  0
 24 25  1  0
 25 26  1  0
 26 27  2  0
 27 28  1  0
 28 29  2  0
 29 30  1  0
 30 31  2  0
 29 32  1  0
 32 33  2  0
 33 34  1  0
 34 35  2  0
 35 36  1  0
 36 37  2  0
 37 38  1  0
 38 39  2  0
 39 40  1  0
 40 41  1  0
 41 42  2  0
 41 43  1  0
 24  5  1  0
 23  7  1  0
 22 16  1  0
 31 26  1  0
 37 32  1  0
 43 38  1  0
M  CHG  2   1   1  43  -1
M  END
$$$$
470800
     RDKit          2D

 33 34  0  0  0  0  0  0  0  0999 V2000
    5.0537    0.0000    0.0000 K   0  0  0  0  0 15  0  0  0  0  0  0
    3.0000    0.0000    0.0000 C   0  0  0  0  0  0  0  0  0  0  0  0
    1.5000    0.0000    0.0000 N   0  0  0  0  0  0  0  0  0  0  0  0
    0.7500   -1.2990    0.0000 C   0  0  0  0  0  0  0  0  0  0  0  0
    1.5000   -2.5981    0.0000 O   0  0  0  0  0  0  0  0  0  0  0  0
   -0.7500   -1.2990    0.0000 C   0  0  0  0  0  0  0  0  0  0  0  0
   -1.5000    0.0000    0.0000 C   0  0  0  0  0  0  0  0  0  0  0  0
   -0.7500    1.2990    0.0000 N   0  0  0  0  0  0  0  0  0  0  0  0
    0.7500    1.2990    0.0000 C   0  0  0  0  0  0  0  0  0  0  0  0
    1.5000    2.5981    0.0000 C   0  0  0  0  0  0  0  0  0  0  0  0
    0.2010    3.3481    0.0000 C   0  0  0  0  0  0  0  0  0  0  0  0
    2.7990    1.8481    0.0000 C   0  0  0  0  0  0  0  0  0  0  0  0
    2.2500    3.8971    0.0000 N   0  0  0  0  0  0  0  0  0  0  0  0
    1.5000    5.1962    0.0000 C   0  0  0  0  0  0  0  0  0  0  0  0
    0.0000    5.1962    0.0000 O   0  0  0  0  0  0  0  0  0  0  0  0
    2.2500    6.4952    0.0000 C   0  0  0  0  0  0  0  0  0  0  0  0
    1.6399    7.8655    0.0000 O   0  0  0  0  0  0  0  0  0  0  0  0
    2.7546    8.8692    0.0000 C   0  0  0  0  0  0  0  0  0  0  0  0
    2.5978   10.3610    0.0000 C   0  0  0  0  0  0  0  0  0  0  0  0
    4.0537    8.1192    0.0000 N   0  0  0  0  0  0  0  0  0  0  0  0
    3.7418    6.6520    0.0000 N   0  0  0  0  0  0  0  0  0  0  0  0
   -3.0000    0.0000    0.0000 C   0  0  0  0  0  0  0  0  0  0  0  0
   -3.7500   -1.2990    0.0000 O   0  0  0  0  0  0  0  0  0  0  0  0
   -3.7500    1.2990    0.0000 N   0  0  0  0  0  0  0  0  0  0  0  0
   -5.2500    1.2990    0.0000 C   0  0  0  0  0  0  0  0  0  0  0  0
   -6.0000    2.5981    0.0000 C   0  0  0  0  0  0  0  0  0  0  0  0
   -5.2500    3.8971    0.0000 C   0  0  0  0  0  0  0  0  0  0  0  0
   -6.0000    5.1962    0.0000 C   0  0  0  0  0  0  0  0  0  0  0  0
   -7.5000    5.1962    0.0000 C   0  0  0  0  0  0  0  0  0  0  0  0
   -8.2500    6.4952    0.0000 F   0  0  0  0  0  0  0  0  0  0  0  0
   -8.2500    3.8971    0.0000 C   0  0  0  0  0  0  0  0  0  0  0  0
   -7.5000    2.5981    0.0000 C   0  0  0  0  0  0  0  0  0  0  0  0
   -1.5000   -2.5981    0.0000 O   0  0  0  0  0  1  0  0  0  0  0  0
  2  3  1  0
  3  4  1  0
  4  5  2  0
  4  6  1  0
  6  7  2  0
  7  8  1  0
  8  9  2  0
  9 10  1  0
 10 11  1  0
 10 12  1  0
 10 13  1  0
 13 14  1  0
 14 15  2  0
 14 16  1  0
 16 17  1  0
 17 18  1  0
 18 19  1  0
 18 20  2  0
 20 21  1  0
  7 22  1  0
 22 23  2  0
 22 24  1  0
 24 25  1  0
 25 26  1  0
 26 27  2  0
 27 28  1  0
 28 29  2  0
 29 30  1  0
 29 31  1  0
 31 32  2  0
  6 33  1  0
  9  3  1  0
 21 16  2  0
 32 26  1  0
M  CHG  2   1   1  33  -1
M  END
$$$$
674535
     RDKit          2D

 12 11  0  0  0  0  0  0  0  0999 V2000
    0.0000    3.5981    0.0000 K   0  0  0  0  0 15  0  0  0  0  0  0
    3.0000    0.0000    0.0000 N   0  0  0  0  0  0  0  0  0  0  0  0
    1.5000    0.0000    0.0000 C   0  0  0  0  0  0  0  0  0  0  0  0
    0.7500   -1.2990    0.0000 C   0  0  0  0  0  0  0  0  0  0  0  0
   -0.7500   -1.2990    0.0000 C   0  0  0  0  0  0  0  0  0  0  0  0
   -1.5000    0.0000    0.0000 C   0  0  0  0  0  0  0  0  0  0  0  0
   -3.0000    0.0000    0.0000 C   0  0  0  0  0  0  0  0  0  0  0  0
   -3.7500   -1.2990    0.0000 O   0  0  0  0  0  0  0  0  0  0  0  0
   -3.7500    1.2990    0.0000 O   0  0  0  0  0  1  0  0  0  0  0  0
   -0.7500    1.2990    0.0000 C   0  0  0  0  0  0  0  0  0  0  0  0
   -1.5000    2.5981    0.0000 O   0  0  0  0  0  0  0  0  0  0  0  0
    0.7500    1.2990    0.0000 C   0  0  0  0  0  0  0  0  0  0  0  0
  2  3  1  0
  3  4  2  0
  4  5  1  0
  5  6  2  0
  6  7  1  0
  7  8  2  0
  7  9  1  0
  6 10  1  0
 10 11  1  0
 10 12  2  0
 12  3  1  0
M  CHG  2   1   1   9  -1
M  END
$$$$
111491
     RDKit          2D

 15 15  0  0  0  0  0  0  0  0999 V2000
    2.0607    0.0000    0.0000 K   0  0  0  0  0 15  0  0  0  0  0  0
   -3.8956   -5.7327    0.0000 O   0  0  0  0  0  0  0  0  0  0  0  0
   -2.8349   -4.6721    0.0000 C   0  0  0  0  0  0  0  0  0  0  0  0
   -3.2232   -3.2232    0.0000 C   0  0  0  0  0  0  0  0  0  0  0  0
   -2.1625   -2.1625    0.0000 C   0  0  0  0  0  0  0  0  0  0  0  0
   -0.6810   -2.3972    0.0000 O   0  0  0  0  0  0  0  0  0  0  0  0
   -0.0000   -1.0607    0.0000 C   0  0  0  0  0  0  0  0  0  0  0  0
    1.0607    0.0000    0.0000 C   0  0  0  0  0  0  0  0  0  0  0  0
    0.0000    1.0607    0.0000 C   0  0  0  0  0  0  0  0  0  0  0  0
    0.0000    2.5607    0.0000 O   0  0  0  0  0  0  0  0  0  0  0  0
   -1.0607    0.0000    0.0000 N   0  0  0  0  0  0  0  0  0  0  0  0
   -2.3972   -0.6810    0.0000 C   0  0  0  0  0  0  0  0  0  0  0  0
   -3.7337    0.0000    0.0000 C   0  0  0  0  0  0  0  0  0  0  0  0
   -4.9917   -0.8170    0.0000 O   0  0  0  0  0  0  0  0  0  0  0  0
   -3.8122    1.4979    0.0000 O   0  0  0  0  0  1  0  0  0  0  0  0
  2  3  1  0
  3  4  1  0
  4  5  2  0
  5  6  1  0
  6  7  1  0
  7  8  1  1
  8  9  1  0
  9 10  2  0
  9 11  1  0
 11 12  1  0
 12 13  1  6
 13 14  2  0
 13 15  1  0
 12  5  1  0
 11  7  1  0
M  CHG  2   1   1  15  -1
M  END
$$$$
1369640
     RDKit          2D

 25 25  0  0  0  0  0  0  0  0999 V2000
    0.0000    3.5981    0.0000 K   0  0  0  0  0 15  0  0  0  0  0  0
    7.0724    0.0000    0.0000 O   0  0  0  0  0  0  0  0  0  0  0  0
    8.3714    0.7500    0.0000 K   0  0  0  0  0  1  0  0  0  0  0  0
   -1.2990   -6.8350    0.0000 O   0  0  0  0  0  1  0  0  0  0  0  0
   -0.0000   -6.0850    0.0000 C   0  0  0  0  0  0  0  0  0  0  0  0
    1.2990   -6.8350    0.0000 O   0  0  0  0  0  0  0  0  0  0  0  0
   -0.0000   -4.5850    0.0000 C   0  0  0  0  0  0  0  0  0  0  0  0
    1.3515   -3.9342    0.0000 N   0  0  0  0  0  0  0  0  0  0  0  0
    1.6852   -2.4718    0.0000 C   0  0  0  0  0  0  0  0  0  0  0  0
    3.1476   -2.1380    0.0000 C   0  0  0  0  0  0  0  0  0  0  0  0
    4.1679   -3.2376    0.0000 C   0  0  0  0  0  0  0  0  0  0  0  0
    5.6303   -2.9038    0.0000 C   0  0  0  0  0  0  0  0  0  0  0  0
    6.0724   -1.4704    0.0000 C   0  0  0  0  0  0  0  0  0  0  0  0
    5.0522   -0.3709    0.0000 C   0  0  0  0  0  0  0  0  0  0  0  0
    3.5898   -0.7046    0.0000 C   0  0  0  0  0  0  0  0  0  0  0  0
    0.7500   -1.2990    0.0000 C   0  0  0  0  0  0  0  0  0  0  0  0
    1.5000    0.0000    0.0000 C   0  0  0  0  0  0  0  0  0  0  0  0
    0.7500    1.2990    0.0000 C   0  0  0  0  0  0  0  0  0  0  0  0
    1.5000    2.5981    0.0000 Cl  0  0  0  0  0  0  0  0  0  0  0  0
   -0.7500    1.2990    0.0000 C   0  0  0  0  0  0  0  0  0  0  0  0
   -1.5000    0.0000    0.0000 C   0  0  0  0  0  0  0  0  0  0  0  0
   -0.7500   -1.2990    0.0000 C   0  0  0  0  0  0  0  0  0  0  0  0
   -1.6852   -2.4718    0.0000 N   0  0  0  0  0  0  0  0  0  0  0  0
   -1.3515   -3.9342    0.0000 C   0  0  0  0  0  0  0  0  0  0  0  0
   -2.5242   -4.8694    0.0000 O   0  0  0  0  0  0  0  0  0  0  0  0
  2  3  1  0
  4  5  1  0
  5  6  2  0
  5  7  1  0
  7  8  1  0
  8  9  2  0
  9 10  1  0
 10 11  2  0
 11 12  1  0
 12 13  2  0
 13 14  1  0
 14 15  2  0
  9 16  1  0
 16 17  2  0
 17 18  1  0
 18 19  1  0
 18 20  2  0
 20 21  1  0
 21 22  2  0
 22 23  1  0
 23 24  1  0
 24 25  2  0
 24  7  1  0
 15 10  1  0
 22 16  1  0
M  CHG  2   1   1   4  -1
M  END
$$$$
178545
     RDKit          2D

  2  0  0  0  0  0  0  0  0  0999 V2000
    0.0000    0.0000    0.0000 K   0  0  0  0  0 15  0  0  0  0  0  0
    1.0000    0.0000    0.0000 I   0  0  0  0  0 15  0  0  0  0  0  0
M  CHG  2   1   1   2  -1
M  END
$$$$
674409
     RDKit          2D

 16 12  0  0  0  0  0  0  0  0999 V2000
    0.0000    4.7500    0.0000 K   0  0  0  0  0 15  0  0  0  0  0  0
    4.8971    0.0000    0.0000 K   0  0  0  0  0 15  0  0  0  0  0  0
    0.0000    5.7500    0.0000 K   0  0  0  0  0 15  0  0  0  0  0  0
    0.5490    2.0490    0.0000 O   0  0  0  0  0  0  0  0  0  0  0  0
    1.2990    0.7500    0.0000 C   0  0  0  0  0  0  0  0  0  0  0  0
    0.0000    0.0000    0.0000 C   0  0  0  0  0  0  0  0  0  0  0  0
   -1.2990    0.7500    0.0000 C   0  0  0  0  0  0  0  0  0  0  0  0
   -1.2990    2.2500    0.0000 O   0  0  0  0  0  0  0  0  0  0  0  0
   -2.5981    0.0000    0.0000 O   0  0  0  0  0  1  0  0  0  0  0  0
    2.5981    1.5000    0.0000 C   0  0  0  0  0  0  0  0  0  0  0  0
    2.5981    3.0000    0.0000 C   0  0  0  0  0  0  0  0  0  0  0  0
    1.2990    3.7500    0.0000 O   0  0  0  0  0  0  0  0  0  0  0  0
    3.8971    3.7500    0.0000 O   0  0  0  0  0  1  0  0  0  0  0  0
    2.0490   -0.5490    0.0000 C   0  0  0  0  0  0  0  0  0  0  0  0
    1.2990   -1.8481    0.0000 O   0  0  0  0  0  0  0  0  0  0  0  0
    3.5490   -0.5490    0.0000 O   0  0  0  0  0  1  0  0  0  0  0  0
  4  5  1  0
  5  6  1  0
  6  7  1  0
  7  8  2  0
  7  9  1  0
  5 10  1  0
 10 11  1  0
 11 12  2  0
 11 13  1  0
  5 14  1  0
 14 15  2  0
 14 16  1  0
M  CHG  6   1   1   2   1   3   1   9  -1  13  -1  16  -1
M  END
$$$$
1336999
     RDKit          2D

  7  4  0  0  0  0  0  0  0  0999 V2000
    3.5981    0.0000    0.0000 K   0  0  0  0  0 15  0  0  0  0  0  0
    0.0000    3.0490    0.0000 K   0  0  0  0  0 15  0  0  0  0  0  0
    0.0000    0.0000    0.0000 O   0  0  0  0  0  1  0  0  0  0  0  0
    1.2990    0.7500    0.0000 S   0  0  0  0  0  0  0  0  0  0  0  0
    2.0490   -0.5490    0.0000 O   0  0  0  0  0  0  0  0  0  0  0  0
    0.5490    2.0490    0.0000 O   0  0  0  0  0  0  0  0  0  0  0  0
    2.5981    1.5000    0.0000 O   0  0  0  0  0  1  0  0  0  0  0  0
  3  4  1  0
  4  5  2  0
  4  6  2  0
  4  7  1  0
M  CHG  4   1   1   2   1   3  -1   7  -1
M  END
$$$$
674755
     RDKit          2D

 20 20  0  0  0  0  0  0  0  0999 V2000
    6.2500    0.0000    0.0000 K   0  0  0  0  0 15  0  0  0  0  0  0
    5.2500   -1.2990    0.0000 O   0  0  0  0  0  1  0  0  0  0  0  0
    3.7500   -1.2990    0.0000 C   0  0  0  0  0  0  0  0  0  0  0  0
    3.0000   -2.5981    0.0000 O   0  0  0  0  0  0  0  0  0  0  0  0
    3.0000    0.0000    0.0000 C   0  0  0  0  0  0  0  0  0  0  0  0
    1.5000    0.0000    0.0000 C   0  0  0  0  0  0  0  0  0  0  0  0
    0.7500   -1.2990    0.0000 C   0  0  0  0  0  0  0  0  0  0  0  0
   -0.7500   -1.2990    0.0000 C   0  0  0  0  0  0  0  0  0  0  0  0
   -1.5000    0.0000    0.0000 C   0  0  0  0  0  0  0  0  0  0  0  0
   -0.7500    1.2990    0.0000 C   0  0  0  0  0  0  0  0  0  0  0  0
    0.7500    1.2990    0.0000 C   0  0  0  0  0  0  0  0  0  0  0  0
    1.5000    2.5981    0.0000 N   0  0  0  0  0  0  0  0  0  0  0  0
    0.7500    3.8971    0.0000 C   0  0  0  0  0  0  0  0  0  0  0  0
    1.5000    5.1962    0.0000 C   0  0  0  0  0  0  0  0  0  0  0  0
    3.0000    5.1962    0.0000 Cl  0  0  0  0  0  0  0  0  0  0  0  0
    0.7500    6.4952    0.0000 C   0  0  0  0  0  0  0  0  0  0  0  0
   -0.7500    6.4952    0.0000 C   0  0  0  0  0  0  0  0  0  0  0  0
   -1.5000    5.1962    0.0000 C   0  0  0  0  0  0  0  0  0  0  0  0
   -0.7500    3.8971    0.0000 C   0  0  0  0  0  0  0  0  0  0  0  0
   -1.5000    2.5981    0.0000 Cl  0  0  0  0  0  0  0  0  0  0  0  0
  2  3  1  0
  3  4  2  0
  3  5  1  0
  5  6  1  0
  6  7  2  0
  7  8  1  0
  8  9  2  0
  9 10  1  0
 10 11  2  0
 11 12  1  0
 12 13  1  0
 13 14  2  0
 14 15  1  0
 14 16  1  0
 16 17  2  0
 17 18  1  0
 18 19  2  0
 19 20  1  0
 11  6  1  0
 19 13  1  0
M  CHG  2   1   1   2  -1
M  END
$$$$
674414
     RDKit          2D

 23 24  0  0  0  0  0  0  0  0999 V2000
    0.0000    2.2990    0.0000 K   0  0  0  0  0 15  0  0  0  0  0  0
    6.3579   -8.4259    0.0000 O   0  0  0  0  0  1  0  0  0  0  0  0
    6.2011   -6.9341    0.0000 C   0  0  0  0  0  0  0  0  0  0  0  0
    7.4146   -6.0524    0.0000 O   0  0  0  0  0  0  0  0  0  0  0  0
    4.8308   -6.3240    0.0000 C   0  0  0  0  0  0  0  0  0  0  0  0
    4.6740   -4.8322    0.0000 C   0  0  0  0  0  0  0  0  0  0  0  0
    3.3037   -4.2221    0.0000 C   0  0  0  0  0  0  0  0  0  0  0  0
    2.9918   -2.7549    0.0000 O   0  0  0  0  0  0  0  0  0  0  0  0
    1.5000   -2.5981    0.0000 C   0  0  0  0  0  0  0  0  0  0  0  0
    0.7500   -1.2990    0.0000 C   0  0  0  0  0  0  0  0  0  0  0  0
    1.5000    0.0000    0.0000 C   0  0  0  0  0  0  0  0  0  0  0  0
    0.7500    1.2990    0.0000 C   0  0  0  0  0  0  0  0  0  0  0  0
   -0.7500    1.2990    0.0000 C   0  0  0  0  0  0  0  0  0  0  0  0
   -1.5000    0.0000    0.0000 C   0  0  0  0  0  0  0  0  0  0  0  0
   -0.7500   -1.2990    0.0000 C   0  0  0  0  0  0  0  0  0  0  0  0
    0.8899   -3.9684    0.0000 C   0  0  0  0  0  0  0  0  0  0  0  0
    2.0046   -4.9721    0.0000 N   0  0  0  0  0  0  0  0  0  0  0  0
   -0.5773   -4.2803    0.0000 C   0  0  0  0  0  0  0  0  0  0  0  0
   -1.5810   -3.1655    0.0000 C   0  0  0  0  0  0  0  0  0  0  0  0
   -3.0482   -3.4774    0.0000 C   0  0  0  0  0  0  0  0  0  0  0  0
   -3.5118   -4.9040    0.0000 C   0  0  0  0  0  0  0  0  0  0  0  0
   -2.5081   -6.0187    0.0000 C   0  0  0  0  0  0  0  0  0  0  0  0
   -1.0409   -5.7068    0.0000 C   0  0  0  0  0  0  0  0  0  0  0  0
  2  3  1  0
  3  4  2  0
  3  5  1  0
  5  6  1  0
  6  7  1  0
  7  8  1  0
  8  9  1  0
  9 10  1  0
 10 11  2  0
 11 12  1  0
 12 13  2  0
 13 14  1  0
 14 15  2  0
  9 16  2  0
 16 17  1  0
 16 18  1  0
 18 19  2  0
 19 20  1  0
 20 21  2  0
 21 22  1  0
 22 23  2  0
 17  7  2  0
 15 10  1  0
 23 18  1  0
M  CHG  2   1   1   2  -1
M  END
$$$$
674647
     RDKit          2D

  6  4  0  0  0  0  0  0  0  0999 V2000
    3.5981    0.0000    0.0000 K   0  0  0  0  0 15  0  0  0  0  0  0
    0.0000    0.0000    0.0000 O   0  0  0  0  0  1  0  0  0  0  0  0
    1.2990    0.7500    0.0000 Cl  0  0  0  0  0  0  0  0  0  0  0  0
    2.5981    1.5000    0.0000 O   0  0  0  0  0  0  0  0  0  0  0  0
    2.0490   -0.5490    0.0000 O   0  0  0  0  0  0  0  0  0  0  0  0
    0.5490    2.0490    0.0000 O   0  0  0  0  0  0  0  0  0  0  0  0
  2  3  1  0
  3  4  1  0
  3  5  1  0
  3  6  1  0
M  CHG  6   1   1   2  -1   3   3   4  -1   5  -1   6  -1
M  END
$$$$
1376008
     RDKit          2D

 20 12  0  0  0  0  0  0  0  0999 V2000
    0.0000    0.0000    0.0000 Li  0  0  0  0  0 15  0  0  0  0  0  0
    1.0000    0.0000    0.0000 Li  0  0  0  0  0 15  0  0  0  0  0  0
    0.0000    1.0000    0.0000 Li  0  0  0  0  0 15  0  0  0  0  0  0
    0.0000    2.0000    0.0000 O   0  0  0  0  0  0  0  0  0  0  0  0
    0.0000    3.0000    0.0000 O   0  0  0  0  0  0  0  0  0  0  0  0
    0.0000    4.0000    0.0000 O   0  0  0  0  0  0  0  0  0  0  0  0
    0.0000    5.0000    0.0000 O   0  0  0  0  0  0  0  0  0  0  0  0
    5.1471    2.0490    0.0000 O   0  0  0  0  0  0  0  0  0  0  0  0
    5.8971    0.7500    0.0000 C   0  0  0  0  0  0  0  0  0  0  0  0
    4.5981    0.0000    0.0000 C   0  0  0  0  0  0  0  0  0  0  0  0
    3.2990    0.7500    0.0000 C   0  0  0  0  0  0  0  0  0  0  0  0
    3.2990    2.2500    0.0000 O   0  0  0  0  0  0  0  0  0  0  0  0
    2.0000    0.0000    0.0000 O   0  0  0  0  0  1  0  0  0  0  0  0
    7.1962    1.5000    0.0000 C   0  0  0  0  0  0  0  0  0  0  0  0
    7.1962    3.0000    0.0000 C   0  0  0  0  0  0  0  0  0  0  0  0
    5.8971    3.7500    0.0000 O   0  0  0  0  0  0  0  0  0  0  0  0
    8.4952    3.7500    0.0000 O   0  0  0  0  0  1  0  0  0  0  0  0
    6.6471   -0.5490    0.0000 C   0  0  0  0  0  0  0  0  0  0  0  0
    5.8971   -1.8481    0.0000 O   0  0  0  0  0  0  0  0  0  0  0  0
    8.1471   -0.5490    0.0000 O   0  0  0  0  0  1  0  0  0  0  0  0
  8  9  1  0
  9 10  1  0
 10 11  1  0
 11 12  2  0
 11 13  1  0
  9 14  1  0
 14 15  1  0
 15 16  2  0
 15 17  1  0
  9 18  1  0
 18 19  2  0
 18 20  1  0
M  CHG  6   1   1   2   1   3   1  13  -1  17  -1  20  -1
M  END
$$$$
675121
     RDKit          2D

 16 12  0  0  0  0  0  0  0  0999 V2000
    0.0000    0.0000    0.0000 Li  0  0  0  0  0 15  0  0  0  0  0  0
    1.0000    0.0000    0.0000 Li  0  0  0  0  0 15  0  0  0  0  0  0
    0.0000    1.0000    0.0000 Li  0  0  0  0  0 15  0  0  0  0  0  0
    5.1471    2.0490    0.0000 O   0  0  0  0  0  0  0  0  0  0  0  0
    5.8971    0.7500    0.0000 C   0  0  0  0  0  0  0  0  0  0  0  0
    4.5981    0.0000    0.0000 C   0  0  0  0  0  0  0  0  0  0  0  0
    3.2990    0.7500    0.0000 C   0  0  0  0  0  0  0  0  0  0  0  0
    3.2990    2.2500    0.0000 O   0  0  0  0  0  0  0  0  0  0  0  0
    2.0000    0.0000    0.0000 O   0  0  0  0  0  1  0  0  0  0  0  0
    7.1962    1.5000    0.0000 C   0  0  0  0  0  0  0  0  0  0  0  0
    7.1962    3.0000    0.0000 C   0  0  0  0  0  0  0  0  0  0  0  0
    5.8971    3.7500    0.0000 O   0  0  0  0  0  0  0  0  0  0  0  0
    8.4952    3.7500    0.0000 O   0  0  0  0  0  1  0  0  0  0  0  0
    6.6471   -0.5490    0.0000 C   0  0  0  0  0  0  0  0  0  0  0  0
    5.8971   -1.8481    0.0000 O   0  0  0  0  0  0  0  0  0  0  0  0
    8.1471   -0.5490    0.0000 O   0  0  0  0  0  1  0  0  0  0  0  0
  4  5  1  0
  5  6  1  0
  6  7  1  0
  7  8  2  0
  7  9  1  0
  5 10  1  0
 10 11  1  0
 11 12  2  0
 11 13  1  0
  5 14  1  0
 14 15  2  0
 14 16  1  0
M  CHG  6   1   1   2   1   3   1   9  -1  13  -1  16  -1
M  END
$$$$
674777
     RDKit          2D

  6  3  0  0  0  0  0  0  0  0999 V2000
    0.0000    0.0000    0.0000 Li  0  0  0  0  0 15  0  0  0  0  0  0
    1.0000    0.0000    0.0000 Li  0  0  0  0  0 15  0  0  0  0  0  0
    1.2990    3.2500    0.0000 O   0  0  0  0  0  1  0  0  0  0  0  0
    0.0000    2.5000    0.0000 C   0  0  0  0  0  0  0  0  0  0  0  0
   -0.0000    1.0000    0.0000 O   0  0  0  0  0  0  0  0  0  0  0  0
   -1.2990    3.2500    0.0000 O   0  0  0  0  0  1  0  0  0  0  0  0
  3  4  1  0
  4  5  2  0
  4  6  1  0
M  CHG  4   1   1   2   1   3  -1   6  -1
M  END
$$$$
991212
     RDKit          2D

 49 52  0  0  0  0  0  0  0  0999 V2000
    4.7500    0.0000    0.0000 Mg  0  0  0  0  0 15  0  0  0  0  0  0
    3.7500   -1.2990    0.0000 C   0  0  0  0  0  0  0  0  0  0  0  0
    3.0000    0.0000    0.0000 O   0  0  0  0  0  0  0  0  0  0  0  0
    1.5000    0.0000    0.0000 C   0  0  0  0  0  0  0  0  0  0  0  0
    0.7500   -1.2990    0.0000 C   0  0  0  0  0  0  0  0  0  0  0  0
   -0.7500   -1.2990    0.0000 C   0  0  0  0  0  0  0  0  0  0  0  0
   -1.5000    0.0000    0.0000 C   0  0  0  0  0  0  0  0  0  0  0  0
   -2.9672    0.3119    0.0000 N   0  0  0  0  0  2  0  0  0  0  0  0
   -3.1240    1.8037    0.0000 C   0  0  0  0  0  0  0  0  0  0  0  0
   -1.7537    2.4138    0.0000 N   0  0  0  0  0  0  0  0  0  0  0  0
   -0.7500    1.2990    0.0000 C   0  0  0  0  0  0  0  0  0  0  0  0
    0.7500    1.2990    0.0000 C   0  0  0  0  0  0  0  0  0  0  0  0
   -4.4231    2.5537    0.0000 S   0  0  0  0  0  3  0  0  0  0  0  0
   -5.7221    1.8037    0.0000 O   0  0  0  0  0  1  0  0  0  0  0  0
   -4.4231    4.0537    0.0000 C   0  0  0  0  0  0  0  0  0  0  0  0
   -5.7221    4.8037    0.0000 C   0  0  0  0  0  0  0  0  0  0  0  0
   -5.7221    6.3037    0.0000 N   0  0  0  0  0  0  0  0  0  0  0  0
   -7.0211    7.0537    0.0000 C   0  0  0  0  0  0  0  0  0  0  0  0
   -8.3202    6.3037    0.0000 C   0  0  0  0  0  0  0  0  0  0  0  0
   -9.6192    7.0537    0.0000 C   0  0  0  0  0  0  0  0  0  0  0  0
   -8.3202    4.8037    0.0000 C   0  0  0  0  0  0  0  0  0  0  0  0
   -9.6192    4.0537    0.0000 O   0  0  0  0  0  0  0  0  0  0  0  0
   -9.6192    2.5537    0.0000 C   0  0  0  0  0  0  0  0  0  0  0  0
   -7.0211    4.0537    0.0000 C   0  0  0  0  0  0  0  0  0  0  0  0
   -7.0211    2.5537    0.0000 C   0  0  0  0  0  0  0  0  0  0  0  0
    3.7500    8.0537    0.0000 C   0  0  0  0  0  0  0  0  0  0  0  0
    3.0000    9.3527    0.0000 O   0  0  0  0  0  0  0  0  0  0  0  0
    1.5000    9.3527    0.0000 C   0  0  0  0  0  0  0  0  0  0  0  0
    0.7500    8.0537    0.0000 C   0  0  0  0  0  0  0  0  0  0  0  0
   -0.7500    8.0537    0.0000 C   0  0  0  0  0  0  0  0  0  0  0  0
   -1.5000    9.3527    0.0000 C   0  0  0  0  0  0  0  0  0  0  0  0
   -2.9672    9.6646    0.0000 N   0  0  0  0  0  2  0  0  0  0  0  0
   -3.1240   11.1563    0.0000 C   0  0  0  0  0  0  0  0  0  0  0  0
   -1.7537   11.7664    0.0000 N   0  0  0  0  0  0  0  0  0  0  0  0
   -0.7500   10.6517    0.0000 C   0  0  0  0  0  0  0  0  0  0  0  0
    0.7500   10.6517    0.0000 C   0  0  0  0  0  0  0  0  0  0  0  0
   -4.4231   11.9063    0.0000 S   0  0  0  0  0  3  0  0  0  0  0  0
   -5.7221   11.1563    0.0000 O   0  0  0  0  0  1  0  0  0  0  0  0
   -4.4231   13.4063    0.0000 C   0  0  0  0  0  0  0  0  0  0  0  0
   -5.7221   14.1563    0.0000 C   0  0  0  0  0  0  0  0  0  0  0  0
   -5.7221   15.6563    0.0000 N   0  0  0  0  0  0  0  0  0  0  0  0
   -7.0211   16.4063    0.0000 C   0  0  0  0  0  0  0  0  0  0  0  0
   -8.3202   15.6563    0.0000 C   0  0  0  0  0  0  0  0  0  0  0  0
   -9.6192   16.4063    0.0000 C   0  0  0  0  0  0  0  0  0  0  0  0
   -8.3202   14.1563    0.0000 C   0  0  0  0  0  0  0  0  0  0  0  0
   -9.6192   13.4063    0.0000 O   0  0  0  0  0  0  0  0  0  0  0  0
   -9.6192   11.9063    0.0000 C   0  0  0  0  0  0  0  0  0  0  0  0
   -7.0211   13.4063    0.0000 C   0  0  0  0  0  0  0  0  0  0  0  0
   -7.0211   11.9063    0.0000 C   0  0  0  0  0  0  0  0  0  0  0  0
  2  3  1  0
  3  4  1  0
  4  5  2  0
  5  6  1  0
  6  7  2  0
  7  8  1  0
  8  9  1  0
  9 10  2  0
 10 11  1  0
 11 12  2  0
  9 13  1  0
 13 14  1  0
 13 15  1  0
 15 16  1  0
 16 17  2  0
 17 18  1  0
 18 19  2  0
 19 20  1  0
 19 21  1  0
 21 22  1  0
 22 23  1  0
 21 24  2  0
 24 25  1  0
 26 27  1  0
 27 28  1  0
 28 29  2  0
 29 30  1  0
 30 31  2  0
 31 32  1  0
 32 33  1  0
 33 34  2  0
 34 35  1  0
 35 36  2  0
 33 37  1  0
 37 38  1  0
 37 39  1  0
 39 40  1  0
 40 41  2  0
 41 42  1  0
 42 43  2  0
 43 44  1  0
 43 45  1  0
 45 46  1  0
 46 47  1  0
 45 48  2  0
 48 49  1  0
 12  4  1  0
 11  7  1  0
 24 16  1  0
 36 28  1  0
 35 31  1  0
 48 40  1  0
M  CHG  7   1   2   8  -1  13   1  14  -1  32  -1  37   1  38  -1
M  END
$$$$
1418084
     RDKit          2D

 49 52  0  0  0  0  0  0  0  0999 V2000
    4.7500    0.0000    0.0000 Mg  0  0  0  0  0 15  0  0  0  0  0  0
    3.7500   -1.2990    0.0000 C   0  0  0  0  0  0  0  0  0  0  0  0
    3.0000    0.0000    0.0000 O   0  0  0  0  0  0  0  0  0  0  0  0
    1.5000    0.0000    0.0000 C   0  0  0  0  0  0  0  0  0  0  0  0
    0.7500   -1.2990    0.0000 C   0  0  0  0  0  0  0  0  0  0  0  0
   -0.7500   -1.2990    0.0000 C   0  0  0  0  0  0  0  0  0  0  0  0
   -1.5000    0.0000    0.0000 C   0  0  0  0  0  0  0  0  0  0  0  0
   -2.9672    0.3119    0.0000 N   0  0  0  0  0  2  0  0  0  0  0  0
   -3.1240    1.8037    0.0000 C   0  0  0  0  0  0  0  0  0  0  0  0
   -1.7537    2.4138    0.0000 N   0  0  0  0  0  0  0  0  0  0  0  0
   -0.7500    1.2990    0.0000 C   0  0  0  0  0  0  0  0  0  0  0  0
    0.7500    1.2990    0.0000 C   0  0  0  0  0  0  0  0  0  0  0  0
   -4.4231    2.5537    0.0000 S   0  0  0  0  0  3  0  0  0  0  0  0
   -5.7221    1.8037    0.0000 O   0  0  0  0  0  1  0  0  0  0  0  0
   -4.4231    4.0537    0.0000 C   0  0  0  0  0  0  0  0  0  0  0  0
   -5.7221    4.8037    0.0000 C   0  0  0  0  0  0  0  0  0  0  0  0
   -5.7221    6.3037    0.0000 N   0  0  0  0  0  0  0  0  0  0  0  0
   -7.0211    7.0537    0.0000 C   0  0  0  0  0  0  0  0  0  0  0  0
   -8.3202    6.3037    0.0000 C   0  0  0  0  0  0  0  0  0  0  0  0
   -9.6192    7.0537    0.0000 C   0  0  0  0  0  0  0  0  0  0  0  0
   -8.3202    4.8037    0.0000 C   0  0  0  0  0  0  0  0  0  0  0  0
   -9.6192    4.0537    0.0000 O   0  0  0  0  0  0  0  0  0  0  0  0
   -9.6192    2.5537    0.0000 C   0  0  0  0  0  0  0  0  0  0  0  0
   -7.0211    4.0537    0.0000 C   0  0  0  0  0  0  0  0  0  0  0  0
   -7.0211    2.5537    0.0000 C   0  0  0  0  0  0  0  0  0  0  0  0
    3.7500    8.0537    0.0000 C   0  0  0  0  0  0  0  0  0  0  0  0
    3.0000    9.3527    0.0000 O   0  0  0  0  0  0  0  0  0  0  0  0
    1.5000    9.3527    0.0000 C   0  0  0  0  0  0  0  0  0  0  0  0
    0.7500    8.0537    0.0000 C   0  0  0  0  0  0  0  0  0  0  0  0
   -0.7500    8.0537    0.0000 C   0  0  0  0  0  0  0  0  0  0  0  0
   -1.5000    9.3527    0.0000 C   0  0  0  0  0  0  0  0  0  0  0  0
   -2.9672    9.6646    0.0000 N   0  0  0  0  0  2  0  0  0  0  0  0
   -3.1240   11.1563    0.0000 C   0  0  0  0  0  0  0  0  0  0  0  0
   -1.7537   11.7664    0.0000 N   0  0  0  0  0  0  0  0  0  0  0  0
   -0.7500   10.6517    0.0000 C   0  0  0  0  0  0  0  0  0  0  0  0
    0.7500   10.6517    0.0000 C   0  0  0  0  0  0  0  0  0  0  0  0
   -4.4231   11.9063    0.0000 S   0  0  0  0  0  3  0  0  0  0  0  0
   -5.7221   11.1563    0.0000 O   0  0  0  0  0  1  0  0  0  0  0  0
   -4.4231   13.4063    0.0000 C   0  0  0  0  0  0  0  0  0  0  0  0
   -5.7221   14.1563    0.0000 C   0  0  0  0  0  0  0  0  0  0  0  0
   -5.7221   15.6563    0.0000 N   0  0  0  0  0  0  0  0  0  0  0  0
   -7.0211   16.4063    0.0000 C   0  0  0  0  0  0  0  0  0  0  0  0
   -8.3202   15.6563    0.0000 C   0  0  0  0  0  0  0  0  0  0  0  0
   -9.6192   16.4063    0.0000 C   0  0  0  0  0  0  0  0  0  0  0  0
   -8.3202   14.1563    0.0000 C   0  0  0  0  0  0  0  0  0  0  0  0
   -9.6192   13.4063    0.0000 O   0  0  0  0  0  0  0  0  0  0  0  0
   -9.6192   11.9063    0.0000 C   0  0  0  0  0  0  0  0  0  0  0  0
   -7.0211   13.4063    0.0000 C   0  0  0  0  0  0  0  0  0  0  0  0
   -7.0211   11.9063    0.0000 C   0  0  0  0  0  0  0  0  0  0  0  0
  2  3  1  0
  3  4  1  0
  4  5  2  0
  5  6  1  0
  6  7  2  0
  7  8  1  0
  8  9  1  0
  9 10  2  0
 10 11  1  0
 11 12  2  0
  9 13  1  0
 13 14  1  0
 13 15  1  0
 15 16  1  0
 16 17  2  0
 17 18  1  0
 18 19  2  0
 19 20  1  0
 19 21  1  0
 21 22  1  0
 22 23  1  0
 21 24  2  0
 24 25  1  0
 26 27  1  0
 27 28  1  0
 28 29  2  0
 29 30  1  0
 30 31  2  0
 31 32  1  0
 32 33  1  0
 33 34  2  0
 34 35  1  0
 35 36  2  0
 33 37  1  0
 37 38  1  0
 37 39  1  0
 39 40  1  0
 40 41  2  0
 41 42  1  0
 42 43  2  0
 43 44  1  0
 43 45  1  0
 45 46  1  0
 46 47  1  0
 45 48  2  0
 48 49  1  0
 12  4  1  0
 11  7  1  0
 24 16  1  0
 36 28  1  0
 35 31  1  0
 48 40  1  0
M  CHG  7   1   2   8  -1  13   1  14  -1  32  -1  37   1  38  -1
M  END
$$$$
1369642
     RDKit          2D

 13 10  0  0  0  0  0  0  0  0999 V2000
    0.0000    4.7500    0.0000 Mg  0  0  0  0  0 15  0  0  0  0  0  0
    0.0000    5.7500    0.0000 Mg  0  0  0  0  0 15  0  0  0  0  0  0
    0.0000    0.0000    0.0000 O   0  0  0  0  0  1  0  0  0  0  0  0
    1.2990    0.7500    0.0000 Si  0  0  0  0  0  4  0  0  0  0  0  0
    1.2990    2.2500    0.0000 O   0  0  0  0  0  0  0  0  0  0  0  0
    2.5981   -0.0000    0.0000 O   0  0  0  0  0  0  0  0  0  0  0  0
    3.8971    0.7500    0.0000 Si  0  0  0  0  0  4  0  0  0  0  0  0
    3.1471    2.0490    0.0000 O   0  0  0  0  0  1  0  0  0  0  0  0
    4.6471   -0.5490    0.0000 O   0  0  0  0  0  1  0  0  0  0  0  0
    5.1962    1.5000    0.0000 O   0  0  0  0  0  0  0  0  0  0  0  0
    5.1962    3.0000    0.0000 Si  0  0  0  0  0  4  0  0  0  0  0  0
    3.8971    3.7500    0.0000 O   0  0  0  0  0  0  0  0  0  0  0  0
    6.4952    3.7500    0.0000 O   0  0  0  0  0  1  0  0  0  0  0  0
  3  4  1  0
  4  5  2  0
  4  6  1  0
  6  7  1  0
  7  8  1  0
  7  9  1  0
  7 10  1  0
 10 11  1  0
 11 12  2  0
 11 13  1  0
M  CHG  6   1   2   2   2   3  -1   8  -1   9  -1  13  -1
M  END
$$$$
1336998
     RDKit          2D

  6  4  0  0  0  0  0  0  0  0999 V2000
    3.5981    0.0000    0.0000 Mg  0  0  0  0  0 15  0  0  0  0  0  0
    0.0000    0.0000    0.0000 O   0  0  0  0  0  1  0  0  0  0  0  0
    1.2990    0.7500    0.0000 S   0  0  0  0  0  0  0  0  0  0  0  0
    2.0490   -0.5490    0.0000 O   0  0  0  0  0  0  0  0  0  0  0  0
    0.5490    2.0490    0.0000 O   0  0  0  0  0  0  0  0  0  0  0  0
    2.5981    1.5000    0.0000 O   0  0  0  0  0  1  0  0  0  0  0  0
  2  3  1  0
  3  4  2  0
  3  5  2  0
  3  6  1  0
M  CHG  3   1   2   2  -1   6  -1
M  END
$$$$
674830
     RDKit          2D

 24 25  0  0  0  0  0  0  0  0999 V2000
    7.0000    0.0000    0.0000 Na  0  0  0  0  0 15  0  0  0  0  0  0
    0.7500   -9.0933    0.0000 C   0  0  0  0  0  0  0  0  0  0  0  0
    1.5000   -7.7942    0.0000 C   0  0  0  0  0  0  0  0  0  0  0  0
    3.0000   -7.7942    0.0000 O   0  0  0  0  0  0  0  0  0  0  0  0
    0.7500   -6.4952    0.0000 C   0  0  0  0  0  0  0  0  0  0  0  0
    1.5000   -5.1962    0.0000 C   0  0  0  0  0  0  0  0  0  0  0  0
    0.7500   -3.8971    0.0000 C   0  0  0  0  0  0  0  0  0  0  0  0
    1.5000   -2.5981    0.0000 C   0  0  0  0  0  0  0  0  0  0  0  0
    3.0000   -2.5981    0.0000 O   0  0  0  0  0  1  0  0  0  0  0  0
    0.7500   -1.2990    0.0000 C   0  0  0  0  0  0  0  0  0  0  0  0
    1.5000    0.0000    0.0000 C   0  0  0  0  0  0  0  0  0  0  0  0
    0.7500    1.2990    0.0000 C   0  0  0  0  0  0  0  0  0  0  0  0
   -0.7500    1.2990    0.0000 C   0  0  0  0  0  0  0  0  0  0  0  0
   -1.5000    0.0000    0.0000 C   0  0  0  0  0  0  0  0  0  0  0  0
   -0.7500   -1.2990    0.0000 C   0  0  0  0  0  0  0  0  0  0  0  0
   -1.5000   -2.5981    0.0000 O   0  0  0  0  0  0  0  0  0  0  0  0
   -0.7500   -3.8971    0.0000 C   0  0  0  0  0  0  0  0  0  0  0  0
   -1.5000   -5.1962    0.0000 O   0  0  0  0  0  0  0  0  0  0  0  0
    3.0000   -5.1962    0.0000 C   0  0  0  0  0  0  0  0  0  0  0  0
    3.7500   -6.4952    0.0000 C   0  0  0  0  0  0  0  0  0  0  0  0
    5.2500   -6.4952    0.0000 C   0  0  0  0  0  0  0  0  0  0  0  0
    6.0000   -5.1962    0.0000 C   0  0  0  0  0  0  0  0  0  0  0  0
    5.2500   -3.8971    0.0000 C   0  0  0  0  0  0  0  0  0  0  0  0
    3.7500   -3.8971    0.0000 C   0  0  0  0  0  0  0  0  0  0  0  0
  2  3  1  0
  3  4  2  0
  3  5  1  0
  5  6  1  0
  6  7  1  0
  7  8  2  0
  8  9  1  0
  8 10  1  0
 10 11  2  0
 11 12  1  0
 12 13  2  0
 13 14  1  0
 14 15  2  0
 15 16  1  0
 16 17  1  0
 17 18  2  0
  6 19  1  0
 19 20  2  0
 20 21  1  0
 21 22  2  0
 22 23  1  0
 23 24  2  0
 17  7  1  0
 15 10  1  0
 24 19  1  0
M  CHG  2   1   1   9  -1
M  END
$$$$
674532
     RDKit          2D

 21 20  0  0  0  0  0  0  0  0999 V2000
    0.0000    4.8971    0.0000 Na  0  0  0  0  0 15  0  0  0  0  0  0
    5.2500   -1.2990    0.0000 C   0  0  0  0  0  0  0  0  0  0  0  0
    3.7500   -1.2990    0.0000 C   0  0  0  0  0  0  0  0  0  0  0  0
    3.0000   -2.5981    0.0000 O   0  0  0  0  0  0  0  0  0  0  0  0
    3.0000    0.0000    0.0000 N   0  0  0  0  0  0  0  0  0  0  0  0
    1.5000    0.0000    0.0000 C   0  0  0  0  0  0  0  0  0  0  0  0
    0.7500   -1.2990    0.0000 C   0  0  0  0  0  0  0  0  0  0  0  0
    1.5000   -2.5981    0.0000 I   0  0  0  0  0  0  0  0  0  0  0  0
   -0.7500   -1.2990    0.0000 C   0  0  0  0  0  0  0  0  0  0  0  0
   -1.5000   -2.5981    0.0000 N   0  0  0  0  0  0  0  0  0  0  0  0
   -3.0000   -2.5981    0.0000 C   0  0  0  0  0  0  0  0  0  0  0  0
   -3.7500   -1.2990    0.0000 O   0  0  0  0  0  0  0  0  0  0  0  0
   -3.7500   -3.8971    0.0000 C   0  0  0  0  0  0  0  0  0  0  0  0
   -1.5000    0.0000    0.0000 C   0  0  0  0  0  0  0  0  0  0  0  0
   -3.0000    0.0000    0.0000 I   0  0  0  0  0  0  0  0  0  0  0  0
   -0.7500    1.2990    0.0000 C   0  0  0  0  0  0  0  0  0  0  0  0
   -1.5000    2.5981    0.0000 C   0  0  0  0  0  0  0  0  0  0  0  0
   -3.0000    2.5981    0.0000 O   0  0  0  0  0  0  0  0  0  0  0  0
   -0.7500    3.8971    0.0000 O   0  0  0  0  0  1  0  0  0  0  0  0
    0.7500    1.2990    0.0000 C   0  0  0  0  0  0  0  0  0  0  0  0
    1.5000    2.5981    0.0000 I   0  0  0  0  0  0  0  0  0  0  0  0
  2  3  1  0
  3  4  2  0
  3  5  1  0
  5  6  1  0
  6  7  2  0
  7  8  1  0
  7  9  1  0
  9 10  1  0
 10 11  1  0
 11 12  2  0
 11 13  1  0
  9 14  2  0
 14 15  1  0
 14 16  1  0
 16 17  1  0
 17 18  2  0
 17 19  1  0
 16 20  2  0
 20 21  1  0
 20  6  1  0
M  CHG  2   1   1  19  -1
M  END
$$$$
674632
     RDKit          2D

 42 45  0  0  0  0  0  0  0  0999 V2000
    8.7181    0.0000    0.0000 Na  0  0  0  0  0 15  0  0  0  0  0  0
    0.5490  -10.9413    0.0000 C   0  0  0  0  0  0  0  0  0  0  0  0
   -0.7500  -11.6913    0.0000 C   0  0  0  0  0  0  0  0  0  0  0  0
   -2.0490  -12.4413    0.0000 C   0  0  0  0  0  0  0  0  0  0  0  0
   -0.0000  -12.9904    0.0000 O   0  0  0  0  0  0  0  0  0  0  0  0
   -1.5000  -10.3923    0.0000 C   0  0  0  0  0  0  0  0  0  0  0  0
   -3.0000  -10.3923    0.0000 C   0  0  0  0  0  0  0  0  0  0  0  0
   -3.7500   -9.0933    0.0000 C   0  0  0  0  0  0  0  0  0  0  0  0
   -3.0000   -7.7942    0.0000 C   0  0  0  0  0  0  0  0  0  0  0  0
   -1.5000   -7.7942    0.0000 C   0  0  0  0  0  0  0  0  0  0  0  0
   -0.7500   -9.0933    0.0000 C   0  0  0  0  0  0  0  0  0  0  0  0
    0.7500   -9.0933    0.0000 C   0  0  0  0  0  0  0  0  0  0  0  0
    1.5000   -7.7942    0.0000 C   0  0  0  0  0  0  0  0  0  0  0  0
    3.0000   -7.7942    0.0000 C   0  0  0  0  0  0  0  0  0  0  0  0
    3.7500   -9.0933    0.0000 S   0  0  0  0  0  0  0  0  0  0  0  0
    3.0000  -10.3923    0.0000 C   0  0  0  0  0  0  0  0  0  0  0  0
    3.7500  -11.6913    0.0000 C   0  0  0  0  0  0  0  0  0  0  0  0
    5.1595  -11.1783    0.0000 C   0  0  0  0  0  0  0  0  0  0  0  0
    6.3086  -12.1425    0.0000 C   0  0  0  0  0  0  0  0  0  0  0  0
    6.0481  -13.6197    0.0000 O   0  0  0  0  0  0  0  0  0  0  0  0
    7.7181  -11.6295    0.0000 O   0  0  0  0  0  1  0  0  0  0  0  0
    4.0105  -13.1686    0.0000 C   0  0  0  0  0  0  0  0  0  0  0  0
    2.6009  -12.6555    0.0000 C   0  0  0  0  0  0  0  0  0  0  0  0
    3.7500   -6.4952    0.0000 C   0  0  0  0  0  0  0  0  0  0  0  0
    5.2500   -6.4952    0.0000 C   0  0  0  0  0  0  0  0  0  0  0  0
    6.0000   -5.1962    0.0000 C   0  0  0  0  0  0  0  0  0  0  0  0
    5.2500   -3.8971    0.0000 C   0  0  0  0  0  0  0  0  0  0  0  0
    3.7500   -3.8971    0.0000 C   0  0  0  0  0  0  0  0  0  0  0  0
    3.0000   -2.5981    0.0000 C   0  0  0  0  0  0  0  0  0  0  0  0
    1.5000   -2.5981    0.0000 C   0  0  0  0  0  0  0  0  0  0  0  0
    0.7500   -1.2990    0.0000 C   0  0  0  0  0  0  0  0  0  0  0  0
    1.5000    0.0000    0.0000 C   0  0  0  0  0  0  0  0  0  0  0  0
    0.7500    1.2990    0.0000 C   0  0  0  0  0  0  0  0  0  0  0  0
   -0.7500    1.2990    0.0000 C   0  0  0  0  0  0  0  0  0  0  0  0
   -1.5000    2.5981    0.0000 C   0  0  0  0  0  0  0  0  0  0  0  0
   -3.0000    2.5981    0.0000 C   0  0  0  0  0  0  0  0  0  0  0  0
   -3.7500    1.2990    0.0000 C   0  0  0  0  0  0  0  0  0  0  0  0
   -5.2500    1.2990    0.0000 Cl  0  0  0  0  0  0  0  0  0  0  0  0
   -3.0000    0.0000    0.0000 C   0  0  0  0  0  0  0  0  0  0  0  0
   -1.5000    0.0000    0.0000 C   0  0  0  0  0  0  0  0  0  0  0  0
   -0.7500   -1.2990    0.0000 N   0  0  0  0  0  0  0  0  0  0  0  0
    3.0000   -5.1962    0.0000 C   0  0  0  0  0  0  0  0  0  0  0  0
  2  3  1  0
  3  4  1  0
  3  5  1  0
  3  6  1  0
  6  7  2  0
  7  8  1  0
  8  9  2  0
  9 10  1  0
 10 11  2  0
 11 12  1  0
 12 13  1  0
 14 13  1  6
 14 15  1  0
 15 16  1  0
 16 17  1  0
 17 18  1  0
 18 19  1  0
 19 20  2  0
 19 21  1  0
 17 22  1  0
 22 23  1  0
 14 24  1  0
 24 25  2  0
 25 26  1  0
 26 27  2  0
 27 28  1  0
 28 29  1  0
 29 30  2  0
 30 31  1  0
 31 32  2  0
 32 33  1  0
 33 34  2  0
 34 35  1  0
 35 36  2  0
 36 37  1  0
 37 38  1  0
 37 39  2  0
 39 40  1  0
 40 41  2  0
 28 42  2  0
 11  6  1  0
 23 17  1  0
 42 24  1  0
 41 31  1  0
 40 34  1  0
M  CHG  2   1   1  21  -1
M  END
$$$$
700369
     RDKit          2D

 16 15  0  0  0  0  0  0  0  0999 V2000
    0.0000    2.2990    0.0000 Na  0  0  0  0  0 15  0  0  0  0  0  0
    5.2500   -1.2990    0.0000 C   0  0  0  0  0  0  0  0  0  0  0  0
    3.7500   -1.2990    0.0000 C   0  0  0  0  0  0  0  0  0  0  0  0
    3.0000   -2.5981    0.0000 C   0  0  0  0  0  0  0  0  0  0  0  0
    3.0000    0.0000    0.0000 C   0  0  0  0  0  0  0  0  0  0  0  0
    1.5000    0.0000    0.0000 C   0  0  0  0  0  0  0  0  0  0  0  0
    0.7500   -1.2990    0.0000 C   0  0  0  0  0  0  0  0  0  0  0  0
   -0.7500   -1.2990    0.0000 C   0  0  0  0  0  0  0  0  0  0  0  0
   -1.5000    0.0000    0.0000 C   0  0  0  0  0  0  0  0  0  0  0  0
   -0.7500    1.2990    0.0000 C   0  0  0  0  0  0  0  0  0  0  0  0
    0.7500    1.2990    0.0000 C   0  0  0  0  0  0  0  0  0  0  0  0
   -3.0000    0.0000    0.0000 C   0  0  0  0  0  0  0  0  0  0  0  0
   -3.7500    1.2990    0.0000 C   0  0  0  0  0  0  0  0  0  0  0  0
   -3.7500   -1.2990    0.0000 C   0  0  0  0  0  0  0  0  0  0  0  0
   -3.0000   -2.5981    0.0000 O   0  0  0  0  0  0  0  0  0  0  0  0
   -5.2500   -1.2990    0.0000 O   0  0  0  0  0  1  0  0  0  0  0  0
  2  3  1  0
  3  4  1  0
  3  5  1  0
  5  6  1  0
  6  7  2  0
  7  8  1  0
  8  9  2  0
  9 10  1  0
 10 11  2  0
  9 12  1  0
 12 13  1  0
 12 14  1  0
 14 15  2  0
 14 16  1  0
 11  6  1  0
M  CHG  2   1   1  16  -1
M  END
$$$$
1449167
     RDKit          2D

 31 32  0  0  0  0  0  0  0  0999 V2000
    7.9199    0.0000    0.0000 Na  0  0  0  0  0 15  0  0  0  0  0  0
   -3.7548   -2.1855    0.0000 C   0  0  0  0  0  0  0  0  0  0  0  0
   -2.6401   -3.1891    0.0000 C   0  0  0  0  0  0  0  0  0  0  0  0
   -2.9520   -4.6564    0.0000 C   0  0  0  0  0  0  0  0  0  0  0  0
   -1.2135   -2.7256    0.0000 N   0  0  0  0  0  0  0  0  0  0  0  0
   -0.0000   -3.6073    0.0000 C   0  0  0  0  0  0  0  0  0  0  0  0
   -0.0000   -5.1073    0.0000 C   0  0  0  0  0  0  0  0  0  0  0  0
   -1.2990   -5.8573    0.0000 C   0  0  0  0  0  0  0  0  0  0  0  0
   -1.2990   -7.3573    0.0000 C   0  0  0  0  0  0  0  0  0  0  0  0
   -0.0000   -8.1073    0.0000 O   0  0  0  0  0  0  0  0  0  0  0  0
   -2.5981   -8.1073    0.0000 C   0  0  0  0  0  0  0  0  0  0  0  0
   -2.5981   -9.6073    0.0000 C   0  0  0  0  0  0  0  0  0  0  0  0
   -1.2990  -10.3573    0.0000 O   0  0  0  0  0  0  0  0  0  0  0  0
   -3.8971  -10.3573    0.0000 C   0  0  0  0  0  0  0  0  0  0  0  0
   -3.8971  -11.8573    0.0000 C   0  0  0  0  0  0  0  0  0  0  0  0
   -2.5981  -12.6073    0.0000 O   0  0  0  0  0  0  0  0  0  0  0  0
   -5.1962  -12.6073    0.0000 O   0  0  0  0  0  1  0  0  0  0  0  0
    1.2135   -2.7256    0.0000 C   0  0  0  0  0  0  0  0  0  0  0  0
    2.6401   -3.1891    0.0000 C   0  0  0  0  0  0  0  0  0  0  0  0
    2.9520   -4.6564    0.0000 C   0  0  0  0  0  0  0  0  0  0  0  0
    4.3786   -5.1199    0.0000 C   0  0  0  0  0  0  0  0  0  0  0  0
    5.4933   -4.1162    0.0000 C   0  0  0  0  0  0  0  0  0  0  0  0
    6.9199   -4.5797    0.0000 F   0  0  0  0  0  0  0  0  0  0  0  0
    5.1814   -2.6490    0.0000 C   0  0  0  0  0  0  0  0  0  0  0  0
    3.7548   -2.1855    0.0000 C   0  0  0  0  0  0  0  0  0  0  0  0
    0.7500   -1.2990    0.0000 C   0  0  0  0  0  0  0  0  0  0  0  0
    1.5000    0.0000    0.0000 C   0  0  0  0  0  0  0  0  0  0  0  0
    0.7500    1.2990    0.0000 C   0  0  0  0  0  0  0  0  0  0  0  0
   -0.7500    1.2990    0.0000 C   0  0  0  0  0  0  0  0  0  0  0  0
   -1.5000    0.0000    0.0000 C   0  0  0  0  0  0  0  0  0  0  0  0
   -0.7500   -1.2990    0.0000 C   0  0  0  0  0  0  0  0  0  0  0  0
  2  3  1  0
  3  4  1  0
  3  5  1  0
  5  6  1  0
  6  7  1  0
  7  8  2  0
  8  9  1  0
  9 10  1  0
  9 11  1  0
 11 12  1  0
 12 13  1  0
 12 14  1  0
 14 15  1  0
 15 16  2  0
 15 17  1  0
  6 18  2  0
 18 19  1  0
 19 20  2  0
 20 21  1  0
 21 22  2  0
 22 23  1  0
 22 24  1  0
 24 25  2  0
 18 26  1  0
 26 27  2  0
 27 28  1  0
 28 29  2  0
 29 30  1  0
 30 31  2  0
 31  5  1  0
 25 19  1  0
 31 26  1  0
M  CHG  2   1   1  17  -1
M  END
$$$$
674942
     RDKit          2D

 36 39  0  0  0  0  0  0  0  0999 V2000
    0.0000   12.0972    0.0000 Na  0  0  0  0  0 15  0  0  0  0  0  0
  -11.9918    9.2332    0.0000 C   0  0  0  0  0  0  0  0  0  0  0  0
  -11.4543    7.8328    0.0000 C   0  0  0  0  0  0  0  0  0  0  0  0
  -12.9032    7.4446    0.0000 C   0  0  0  0  0  0  0  0  0  0  0  0
  -10.1178    8.5138    0.0000 S   0  0  0  0  0  0  0  0  0  0  0  0
   -9.0571    7.4532    0.0000 C   0  0  0  0  0  0  0  0  0  0  0  0
   -7.7206    6.7722    0.0000 C   0  0  0  0  0  0  0  0  0  0  0  0
   -6.2940    7.2357    0.0000 N   0  0  0  0  0  0  0  0  0  0  0  0
   -5.1793    6.2320    0.0000 C   0  0  0  0  0  0  0  0  0  0  0  0
   -5.4912    4.7648    0.0000 O   0  0  0  0  0  0  0  0  0  0  0  0
   -3.7527    6.6955    0.0000 C   0  0  0  0  0  0  0  0  0  0  0  0
   -2.6380    5.6918    0.0000 C   0  0  0  0  0  0  0  0  0  0  0  0
   -1.2114    6.1554    0.0000 O   0  0  0  0  0  0  0  0  0  0  0  0
   -2.9499    4.2246    0.0000 O   0  0  0  0  0  0  0  0  0  0  0  0
   -1.8351    3.2209    0.0000 C   0  0  0  0  0  0  0  0  0  0  0  0
   -0.4086    3.6844    0.0000 C   0  0  0  0  0  0  0  0  0  0  0  0
    0.7062    2.6807    0.0000 C   0  0  0  0  0  0  0  0  0  0  0  0
    0.3943    1.2135    0.0000 C   0  0  0  0  0  0  0  0  0  0  0  0
    1.2760    0.0000    0.0000 C   0  0  0  0  0  0  0  0  0  0  0  0
    0.3943   -1.2135    0.0000 C   0  0  0  0  0  0  0  0  0  0  0  0
   -1.0323   -0.7500    0.0000 C   0  0  0  0  0  0  0  0  0  0  0  0
   -1.0323    0.7500    0.0000 C   0  0  0  0  0  0  0  0  0  0  0  0
   -2.1470    1.7537    0.0000 C   0  0  0  0  0  0  0  0  0  0  0  0
   -3.4408    8.1628    0.0000 C   0  0  0  0  0  0  0  0  0  0  0  0
   -2.0143    8.6263    0.0000 C   0  0  0  0  0  0  0  0  0  0  0  0
   -1.7024   10.0935    0.0000 C   0  0  0  0  0  0  0  0  0  0  0  0
   -2.8171   11.0972    0.0000 C   0  0  0  0  0  0  0  0  0  0  0  0
   -4.2437   10.6337    0.0000 C   0  0  0  0  0  0  0  0  0  0  0  0
   -4.5556    9.1664    0.0000 C   0  0  0  0  0  0  0  0  0  0  0  0
   -8.4016    5.4357    0.0000 C   0  0  0  0  0  0  0  0  0  0  0  0
   -7.9381    4.0091    0.0000 O   0  0  0  0  0  0  0  0  0  0  0  0
   -9.7381    6.1167    0.0000 N   0  0  0  0  0  0  0  0  0  0  0  0
  -11.2196    6.3513    0.0000 C   0  0  0  0  0  0  0  0  0  0  0  0
  -12.2803    5.2906    0.0000 C   0  0  0  0  0  0  0  0  0  0  0  0
  -13.7292    5.6789    0.0000 O   0  0  0  0  0  0  0  0  0  0  0  0
  -11.8920    3.8418    0.0000 O   0  0  0  0  0  1  0  0  0  0  0  0
  2  3  1  0
  3  4  1  0
  3  5  1  0
  6  5  1  6
  6  7  1  0
  7  8  1  6
  8  9  1  0
  9 10  2  0
  9 11  1  0
 11 12  1  0
 12 13  2  0
 12 14  1  0
 14 15  1  0
 15 16  2  0
 16 17  1  0
 17 18  2  0
 18 19  1  0
 19 20  1  0
 20 21  1  0
 21 22  1  0
 22 23  2  0
 11 24  1  0
 24 25  2  0
 25 26  1  0
 26 27  2  0
 27 28  1  0
 28 29  2  0
  7 30  1  0
 30 31  2  0
 30 32  1  0
 32 33  1  0
 33 34  1  1
 34 35  2  0
 34 36  1  0
 33  3  1  0
 32  6  1  0
 23 15  1  0
 22 18  1  0
 29 24  1  0
M  CHG  2   1   1  36  -1
M  END
$$$$
674564
     RDKit          2D

 20 20  0  0  0  0  0  0  0  0999 V2000
    4.0000    0.0000    0.0000 Na  0  0  0  0  0 15  0  0  0  0  0  0
    3.0000    0.0000    0.0000 C   0  0  0  0  0  0  0  0  0  0  0  0
    1.5000    0.0000    0.0000 C   0  0  0  0  0  0  0  0  0  0  0  0
    0.7500   -1.2990    0.0000 C   0  0  0  0  0  0  0  0  0  0  0  0
   -0.7500   -1.2990    0.0000 C   0  0  0  0  0  0  0  0  0  0  0  0
   -1.5000    0.0000    0.0000 C   0  0  0  0  0  0  0  0  0  0  0  0
   -0.7500    1.2990    0.0000 C   0  0  0  0  0  0  0  0  0  0  0  0
    0.7500    1.2990    0.0000 C   0  0  0  0  0  0  0  0  0  0  0  0
   -3.0000    0.0000    0.0000 C   0  0  0  0  0  0  0  0  0  0  0  0
   -3.7500   -1.2990    0.0000 O   0  0  0  0  0  0  0  0  0  0  0  0
   -3.7500    1.2990    0.0000 C   0  0  0  0  0  0  0  0  0  0  0  0
   -5.2418    1.4558    0.0000 C   0  0  0  0  0  0  0  0  0  0  0  0
   -5.5537    2.9231    0.0000 C   0  0  0  0  0  0  0  0  0  0  0  0
   -4.2546    3.6731    0.0000 C   0  0  0  0  0  0  0  0  0  0  0  0
   -4.0978    5.1648    0.0000 C   0  0  0  0  0  0  0  0  0  0  0  0
   -2.7275    5.7749    0.0000 C   0  0  0  0  0  0  0  0  0  0  0  0
   -1.5140    4.8933    0.0000 O   0  0  0  0  0  0  0  0  0  0  0  0
   -2.5707    7.2667    0.0000 O   0  0  0  0  0  1  0  0  0  0  0  0
   -3.1399    2.6694    0.0000 N   0  0  0  0  0  0  0  0  0  0  0  0
   -1.6727    2.9812    0.0000 C   0  0  0  0  0  0  0  0  0  0  0  0
  2  3  1  0
  3  4  2  0
  4  5  1  0
  5  6  2  0
  6  7  1  0
  7  8  2  0
  6  9  1  0
  9 10  2  0
  9 11  1  0
 11 12  2  0
 12 13  1  0
 13 14  2  0
 14 15  1  0
 15 16  1  0
 16 17  2  0
 16 18  1  0
 14 19  1  0
 19 20  1  0
  8  3  1  0
 19 11  1  0
M  CHG  2   1   1  18  -1
M  END
$$$$
72430
     RDKit          2D

 20 20  0  0  0  0  0  0  0  0999 V2000
    4.0000    0.0000    0.0000 Na  0  0  0  0  0 15  0  0  0  0  0  0
    3.0000    0.0000    0.0000 C   0  0  0  0  0  0  0  0  0  0  0  0
    1.5000    0.0000    0.0000 C   0  0  0  0  0  0  0  0  0  0  0  0
    0.7500   -1.2990    0.0000 C   0  0  0  0  0  0  0  0  0  0  0  0
   -0.7500   -1.2990    0.0000 C   0  0  0  0  0  0  0  0  0  0  0  0
   -1.5000    0.0000    0.0000 C   0  0  0  0  0  0  0  0  0  0  0  0
   -3.0000    0.0000    0.0000 Cl  0  0  0  0  0  0  0  0  0  0  0  0
   -0.7500    1.2990    0.0000 C   0  0  0  0  0  0  0  0  0  0  0  0
   -1.5000    2.5981    0.0000 N   0  0  0  0  0  0  0  0  0  0  0  0
   -0.7500    3.8971    0.0000 C   0  0  0  0  0  0  0  0  0  0  0  0
    0.7500    3.8971    0.0000 C   0  0  0  0  0  0  0  0  0  0  0  0
    1.5000    5.1962    0.0000 C   0  0  0  0  0  0  0  0  0  0  0  0
    0.7500    6.4952    0.0000 C   0  0  0  0  0  0  0  0  0  0  0  0
   -0.7500    6.4952    0.0000 C   0  0  0  0  0  0  0  0  0  0  0  0
   -1.5000    5.1962    0.0000 C   0  0  0  0  0  0  0  0  0  0  0  0
   -3.0000    5.1962    0.0000 C   0  0  0  0  0  0  0  0  0  0  0  0
   -3.7500    3.8971    0.0000 O   0  0  0  0  0  0  0  0  0  0  0  0
   -3.7500    6.4952    0.0000 O   0  0  0  0  0  1  0  0  0  0  0  0
    0.7500    1.2990    0.0000 C   0  0  0  0  0  0  0  0  0  0  0  0
    1.5000    2.5981    0.0000 Cl  0  0  0  0  0  0  0  0  0  0  0  0
  2  3  1  0
  3  4  2  0
  4  5  1  0
  5  6  2  0
  6  7  1  0
  6  8  1  0
  8  9  1  0
  9 10  1  0
 10 11  2  0
 11 12  1  0
 12 13  2  0
 13 14  1  0
 14 15  2  0
 15 16  1  0
 16 17  2  0
 16 18  1  0
  8 19  2  0
 19 20  1  0
 19  3  1  0
 15 10  1  0
M  CHG  2   1   1  18  -1
M  END
$$$$
31491
     RDKit          2D

 29 31  0  0  0  0  0  0  0  0999 V2000
    6.3329    0.0000    0.0000 Na  0  0  0  0  0 15  0  0  0  0  0  0
    5.3329    4.5656    0.0000 C   0  0  0  0  0  0  0  0  0  0  0  0
    4.2722    5.6263    0.0000 C   0  0  0  0  0  0  0  0  0  0  0  0
    4.5069    7.1078    0.0000 O   0  0  0  0  0  0  0  0  0  0  0  0
    3.1704    7.7888    0.0000 N   0  0  0  0  0  0  0  0  0  0  0  0
    2.1097    6.7281    0.0000 C   0  0  0  0  0  0  0  0  0  0  0  0
    0.6282    6.9628    0.0000 C   0  0  0  0  0  0  0  0  0  0  0  0
    0.0906    8.3632    0.0000 C   0  0  0  0  0  0  0  0  0  0  0  0
   -1.3909    8.5978    0.0000 C   0  0  0  0  0  0  0  0  0  0  0  0
   -2.3349    7.4321    0.0000 C   0  0  0  0  0  0  0  0  0  0  0  0
   -1.7973    6.0317    0.0000 C   0  0  0  0  0  0  0  0  0  0  0  0
   -0.3158    5.7971    0.0000 C   0  0  0  0  0  0  0  0  0  0  0  0
    2.7907    5.3916    0.0000 C   0  0  0  0  0  0  0  0  0  0  0  0
    2.1097    4.0551    0.0000 C   0  0  0  0  0  0  0  0  0  0  0  0
    2.9267    2.7971    0.0000 O   0  0  0  0  0  0  0  0  0  0  0  0
    0.6118    3.9766    0.0000 N   0  0  0  0  0  0  0  0  0  0  0  0
   -0.0692    2.6401    0.0000 C   0  0  0  0  0  0  0  0  0  0  0  0
    0.3943    1.2135    0.0000 C   0  0  0  0  0  0  0  0  0  0  0  0
    1.2760    0.0000    0.0000 S   0  0  0  0  0  0  0  0  0  0  0  0
    0.3943   -1.2135    0.0000 C   0  0  0  0  0  0  0  0  0  0  0  0
    1.6933   -1.9635    0.0000 C   0  0  0  0  0  0  0  0  0  0  0  0
   -0.2158   -2.5838    0.0000 C   0  0  0  0  0  0  0  0  0  0  0  0
   -1.0323   -0.7500    0.0000 C   0  0  0  0  0  0  0  0  0  0  0  0
   -1.0323    0.7500    0.0000 N   0  0  0  0  0  0  0  0  0  0  0  0
   -1.4958    2.1766    0.0000 C   0  0  0  0  0  0  0  0  0  0  0  0
   -2.8323    2.8576    0.0000 O   0  0  0  0  0  0  0  0  0  0  0  0
   -2.2458   -1.6317    0.0000 C   0  0  0  0  0  0  0  0  0  0  0  0
   -2.0890   -3.1235    0.0000 O   0  0  0  0  0  0  0  0  0  0  0  0
   -3.6161   -1.0216    0.0000 O   0  0  0  0  0  1  0  0  0  0  0  0
  2  3  1  0
  3  4  1  0
  4  5  1  0
  5  6  2  0
  6  7  1  0
  7  8  2  0
  8  9  1  0
  9 10  2  0
 10 11  1  0
 11 12  2  0
  6 13  1  0
 13 14  1  0
 14 15  2  0
 14 16  1  0
 17 16  1  1
 17 18  1  0
 18 19  1  1
 19 20  1  0
 20 21  1  0
 20 22  1  0
 20 23  1  0
 23 24  1  0
 24 25  1  0
 25 26  2  0
 23 27  1  6
 27 28  2  0
 27 29  1  0
 13  3  2  0
 12  7  1  0
 25 17  1  0
 24 18  1  0
M  CHG  2   1   1  29  -1
M  END
$$$$
1592407
     RDKit          2D

 40 41  0  0  0  0  0  0  0  0999 V2000
    9.1646    0.0000    0.0000 Na  0  0  0  0  0 15  0  0  0  0  0  0
    6.6962  -12.2942    0.0000 C   0  0  0  0  0  0  0  0  0  0  0  0
    5.3971  -11.5442    0.0000 C   0  0  0  0  0  0  0  0  0  0  0  0
    5.3971  -10.0442    0.0000 C   0  0  0  0  0  0  0  0  0  0  0  0
    6.6962   -9.2942    0.0000 O   0  0  0  0  0  0  0  0  0  0  0  0
    4.0981   -9.2942    0.0000 O   0  0  0  0  0  0  0  0  0  0  0  0
    4.0981   -7.7942    0.0000 C   0  0  0  0  0  0  0  0  0  0  0  0
    2.7990   -7.0442    0.0000 O   0  0  0  0  0  0  0  0  0  0  0  0
    1.5000   -7.7942    0.0000 P   0  0  0  0  0  5  0  0  0  0  0  0
    0.2010   -8.5442    0.0000 O   0  0  0  0  0  0  0  0  0  0  0  0
    0.7500   -6.4952    0.0000 C   0  0  0  0  0  0  0  0  0  0  0  0
    1.5000   -5.1962    0.0000 C   0  0  0  0  0  0  0  0  0  0  0  0
    0.7500   -3.8971    0.0000 C   0  0  0  0  0  0  0  0  0  0  0  0
    1.5000   -2.5981    0.0000 C   0  0  0  0  0  0  0  0  0  0  0  0
    0.7500   -1.2990    0.0000 C   0  0  0  0  0  0  0  0  0  0  0  0
    1.5000    0.0000    0.0000 C   0  0  0  0  0  0  0  0  0  0  0  0
    0.7500    1.2990    0.0000 C   0  0  0  0  0  0  0  0  0  0  0  0
   -0.7500    1.2990    0.0000 C   0  0  0  0  0  0  0  0  0  0  0  0
   -1.5000    0.0000    0.0000 C   0  0  0  0  0  0  0  0  0  0  0  0
   -0.7500   -1.2990    0.0000 C   0  0  0  0  0  0  0  0  0  0  0  0
    2.2500   -9.0933    0.0000 C   0  0  0  0  0  0  0  0  0  0  0  0
    1.5000  -10.3923    0.0000 C   0  0  0  0  0  0  0  0  0  0  0  0
    0.0000  -10.3923    0.0000 O   0  0  0  0  0  0  0  0  0  0  0  0
    2.2500  -11.6913    0.0000 N   0  0  0  0  0  0  0  0  0  0  0  0
    3.7418  -11.8481    0.0000 C   0  0  0  0  0  0  0  0  0  0  0  0
    4.0537  -13.3154    0.0000 C   0  0  0  0  0  0  0  0  0  0  0  0
    2.7546  -14.0654    0.0000 C   0  0  0  0  0  0  0  0  0  0  0  0
    1.6399  -13.0617    0.0000 C   0  0  0  0  0  0  0  0  0  0  0  0
    0.1727  -13.3735    0.0000 C   0  0  0  0  0  0  0  0  0  0  0  0
   -0.2909  -14.8001    0.0000 O   0  0  0  0  0  0  0  0  0  0  0  0
   -0.8310  -12.2588    0.0000 O   0  0  0  0  0  1  0  0  0  0  0  0
    5.4240  -13.9255    0.0000 C   0  0  0  0  0  0  0  0  0  0  0  0
    5.5808  -15.4172    0.0000 C   0  0  0  0  0  0  0  0  0  0  0  0
    6.9511  -16.0273    0.0000 C   0  0  0  0  0  0  0  0  0  0  0  0
    8.1646  -15.1457    0.0000 C   0  0  0  0  0  0  0  0  0  0  0  0
    8.0078  -13.6539    0.0000 C   0  0  0  0  0  0  0  0  0  0  0  0
    6.6375  -13.0438    0.0000 C   0  0  0  0  0  0  0  0  0  0  0  0
    5.3971   -7.0442    0.0000 C   0  0  0  0  0  0  0  0  0  0  0  0
    6.6962   -7.7942    0.0000 C   0  0  0  0  0  0  0  0  0  0  0  0
    5.3971   -5.5442    0.0000 C   0  0  0  0  0  0  0  0  0  0  0  0
  2  3  1  0
  3  4  1  0
  4  5  2  0
  4  6  1  0
  7  6  1  1
  7  8  1  0
  8  9  1  0
  9 10  2  0
  9 11  1  1
 11 12  1  0
 12 13  1  0
 13 14  1  0
 14 15  1  0
 15 16  2  0
 16 17  1  0
 17 18  2  0
 18 19  1  0
 19 20  2  0
  9 21  1  0
 21 22  1  0
 22 23  2  0
 22 24  1  0
 24 25  1  0
 25 26  1  0
 26 27  1  0
 27 28  1  0
 28 29  1  1
 29 30  2  0
 29 31  1  0
 26 32  1  6
 32 33  1  0
 33 34  1  0
 34 35  1  0
 35 36  1  0
 36 37  1  0
  7 38  1  0
 38 39  1  0
 38 40  1  0
 20 15  1  0
 28 24  1  0
 37 32  1  0
M  CHG  2   1   1  31  -1
M  END
$$$$
674933
     RDKit          2D

 16 15  0  0  0  0  0  0  0  0999 V2000
    0.0000    3.5981    0.0000 Na  0  0  0  0  0 15  0  0  0  0  0  0
    5.2077   -1.4153    0.0000 C   0  0  0  0  0  0  0  0  0  0  0  0
    4.0586   -0.4512    0.0000 C   0  0  0  0  0  0  0  0  0  0  0  0
    2.6491   -0.9642    0.0000 C   0  0  0  0  0  0  0  0  0  0  0  0
    2.3886   -2.4414    0.0000 C   0  0  0  0  0  0  0  0  0  0  0  0
    1.5000    0.0000    0.0000 C   0  0  0  0  0  0  0  0  0  0  0  0
    2.6491    0.9642    0.0000 C   0  0  0  0  0  0  0  0  0  0  0  0
    4.0586    0.4512    0.0000 C   0  0  0  0  0  0  0  0  0  0  0  0
    0.7500   -1.2990    0.0000 C   0  0  0  0  0  0  0  0  0  0  0  0
    1.5000   -2.5981    0.0000 O   0  0  0  0  0  0  0  0  0  0  0  0
   -0.7500   -1.2990    0.0000 N   0  0  0  0  0  0  0  0  0  0  0  0
   -1.5000    0.0000    0.0000 C   0  0  0  0  0  0  0  0  0  0  0  0
   -3.0000    0.0000    0.0000 O   0  0  0  0  0  0  0  0  0  0  0  0
   -0.7500    1.2990    0.0000 N   0  0  0  0  0  2  0  0  0  0  0  0
    0.7500    1.2990    0.0000 C   0  0  0  0  0  0  0  0  0  0  0  0
    1.5000    2.5981    0.0000 O   0  0  0  0  0  0  0  0  0  0  0  0
  2  3  1  0
  3  4  1  0
  4  5  1  0
  4  6  1  0
  6  7  1  0
  7  8  1  0
  6  9  1  0
  9 10  2  0
  9 11  1  0
 11 12  1  0
 12 13  2  0
 12 14  1  0
 14 15  1  0
 15 16  2  0
 15  6  1  0
M  CHG  2   1   1  14  -1
M  END
$$$$
674850
     RDKit          2D

 23 22  0  0  0  0  0  0  0  0999 V2000
    0.0000    6.1962    0.0000 Na  0  0  0  0  0 15  0  0  0  0  0  0
    7.5000   -2.5981    0.0000 C   0  0  0  0  0  0  0  0  0  0  0  0
    6.0000   -2.5981    0.0000 C   0  0  0  0  0  0  0  0  0  0  0  0
    5.2500   -1.2990    0.0000 C   0  0  0  0  0  0  0  0  0  0  0  0
    3.7500   -1.2990    0.0000 C   0  0  0  0  0  0  0  0  0  0  0  0
    3.0000   -2.5981    0.0000 O   0  0  0  0  0  0  0  0  0  0  0  0
    3.0000    0.0000    0.0000 N   0  0  0  0  0  0  0  0  0  0  0  0
    1.5000    0.0000    0.0000 C   0  0  0  0  0  0  0  0  0  0  0  0
    0.7500   -1.2990    0.0000 C   0  0  0  0  0  0  0  0  0  0  0  0
    1.5000   -2.5981    0.0000 I   0  0  0  0  0  0  0  0  0  0  0  0
   -0.7500   -1.2990    0.0000 C   0  0  0  0  0  0  0  0  0  0  0  0
   -1.5000    0.0000    0.0000 C   0  0  0  0  0  0  0  0  0  0  0  0
   -3.0000    0.0000    0.0000 I   0  0  0  0  0  0  0  0  0  0  0  0
   -0.7500    1.2990    0.0000 C   0  0  0  0  0  0  0  0  0  0  0  0
   -1.5000    2.5981    0.0000 C   0  0  0  0  0  0  0  0  0  0  0  0
   -3.0000    2.5981    0.0000 C   0  0  0  0  0  0  0  0  0  0  0  0
   -3.7500    1.2990    0.0000 C   0  0  0  0  0  0  0  0  0  0  0  0
   -5.2500    1.2990    0.0000 C   0  0  0  0  0  0  0  0  0  0  0  0
   -3.7500    3.8971    0.0000 C   0  0  0  0  0  0  0  0  0  0  0  0
   -5.2500    3.8971    0.0000 O   0  0  0  0  0  0  0  0  0  0  0  0
   -3.0000    5.1962    0.0000 O   0  0  0  0  0  1  0  0  0  0  0  0
    0.7500    1.2990    0.0000 C   0  0  0  0  0  0  0  0  0  0  0  0
    1.5000    2.5981    0.0000 I   0  0  0  0  0  0  0  0  0  0  0  0
  2  3  1  0
  3  4  1  0
  4  5  1  0
  5  6  2  0
  5  7  1  0
  7  8  1  0
  8  9  2  0
  9 10  1  0
  9 11  1  0
 11 12  2  0
 12 13  1  0
 12 14  1  0
 14 15  1  0
 15 16  1  0
 16 17  1  0
 17 18  1  0
 16 19  1  0
 19 20  2  0
 19 21  1  0
 14 22  2  0
 22 23  1  0
 22  8  1  0
M  CHG  2   1   1  21  -1
M  END
$$$$
95978
     RDKit          2D

 17 16  0  0  0  0  0  0  0  0999 V2000
    0.0000    3.5981    0.0000 Na  0  0  0  0  0 15  0  0  0  0  0  0
    6.6172   -0.9023    0.0000 C   0  0  0  0  0  0  0  0  0  0  0  0
    5.2077   -1.4153    0.0000 C   0  0  0  0  0  0  0  0  0  0  0  0
    4.0586   -0.4512    0.0000 C   0  0  0  0  0  0  0  0  0  0  0  0
    2.6491   -0.9642    0.0000 C   0  0  0  0  0  0  0  0  0  0  0  0
    2.3886   -2.4414    0.0000 C   0  0  0  0  0  0  0  0  0  0  0  0
    1.5000    0.0000    0.0000 C   0  0  0  0  0  0  0  0  0  0  0  0
    2.6491    0.9642    0.0000 C   0  0  0  0  0  0  0  0  0  0  0  0
    4.0586    0.4512    0.0000 C   0  0  0  0  0  0  0  0  0  0  0  0
    0.7500   -1.2990    0.0000 C   0  0  0  0  0  0  0  0  0  0  0  0
    1.5000   -2.5981    0.0000 O   0  0  0  0  0  0  0  0  0  0  0  0
   -0.7500   -1.2990    0.0000 N   0  0  0  0  0  0  0  0  0  0  0  0
   -1.5000    0.0000    0.0000 C   0  0  0  0  0  0  0  0  0  0  0  0
   -3.0000    0.0000    0.0000 O   0  0  0  0  0  0  0  0  0  0  0  0
   -0.7500    1.2990    0.0000 N   0  0  0  0  0  2  0  0  0  0  0  0
    0.7500    1.2990    0.0000 C   0  0  0  0  0  0  0  0  0  0  0  0
    1.5000    2.5981    0.0000 O   0  0  0  0  0  0  0  0  0  0  0  0
  2  3  1  0
  3  4  1  0
  4  5  1  0
  5  6  1  0
  5  7  1  0
  7  8  1  0
  8  9  1  0
  7 10  1  0
 10 11  2  0
 10 12  1  0
 12 13  1  0
 13 14  2  0
 13 15  1  0
 15 16  1  0
 16 17  2  0
 16  7  1  0
M  CHG  2   1   1  15  -1
M  END
$$$$
674854
     RDKit          2D

 18 17  0  0  0  0  0  0  0  0999 V2000
    0.0000    3.5981    0.0000 Na  0  0  0  0  0 15  0  0  0  0  0  0
    6.6172   -0.9023    0.0000 C   0  0  0  0  0  0  0  0  0  0  0  0
    5.2077   -1.4153    0.0000 C   0  0  0  0  0  0  0  0  0  0  0  0
    4.0586   -0.4512    0.0000 C   0  0  0  0  0  0  0  0  0  0  0  0
    2.6491   -0.9642    0.0000 C   0  0  0  0  0  0  0  0  0  0  0  0
    2.3886   -2.4414    0.0000 C   0  0  0  0  0  0  0  0  0  0  0  0
    1.5000    0.0000    0.0000 C   0  0  0  0  0  0  0  0  0  0  0  0
    2.6491    0.9642    0.0000 C   0  0  0  0  0  0  0  0  0  0  0  0
    4.0586    0.4512    0.0000 C   0  0  0  0  0  0  0  0  0  0  0  0
    5.2077    1.4153    0.0000 C   0  0  0  0  0  0  0  0  0  0  0  0
    0.7500   -1.2990    0.0000 C   0  0  0  0  0  0  0  0  0  0  0  0
    1.5000   -2.5981    0.0000 O   0  0  0  0  0  0  0  0  0  0  0  0
   -0.7500   -1.2990    0.0000 N   0  0  0  0  0  0  0  0  0  0  0  0
   -1.5000    0.0000    0.0000 C   0  0  0  0  0  0  0  0  0  0  0  0
   -3.0000    0.0000    0.0000 O   0  0  0  0  0  0  0  0  0  0  0  0
   -0.7500    1.2990    0.0000 N   0  0  0  0  0  2  0  0  0  0  0  0
    0.7500    1.2990    0.0000 C   0  0  0  0  0  0  0  0  0  0  0  0
    1.5000    2.5981    0.0000 O   0  0  0  0  0  0  0  0  0  0  0  0
  2  3  1  0
  3  4  1  0
  4  5  1  0
  5  6  1  0
  5  7  1  0
  7  8  1  0
  8  9  1  0
  9 10  2  0
  7 11  1  0
 11 12  2  0
 11 13  1  0
 13 14  1  0
 14 15  2  0
 14 16  1  0
 16 17  1  0
 17 18  2  0
 17  7  1  0
M  CHG  2   1   1  16  -1
M  END
$$$$
1377883
     RDKit          2D

 21 18  0  0  0  0  0  0  0  0999 V2000
    0.0000    8.0000    0.0000 Na  0  0  0  0  0 15  0  0  0  0  0  0
    0.0000    0.0000    0.0000 C   0  0  0  0  0  0  0  0  0  0  0  0
    1.2990    0.7500    0.0000 C   0  0  0  0  0  0  0  0  0  0  0  0
    2.5981   -0.0000    0.0000 C   0  0  0  0  0  0  0  0  0  0  0  0
    3.8971    0.7500    0.0000 C   0  0  0  0  0  0  0  0  0  0  0  0
    5.1962   -0.0000    0.0000 C   0  0  0  0  0  0  0  0  0  0  0  0
    6.4952    0.7500    0.0000 C   0  0  0  0  0  0  0  0  0  0  0  0
    7.7942   -0.0000    0.0000 C   0  0  0  0  0  0  0  0  0  0  0  0
    3.8971    2.2500    0.0000 C   0  0  0  0  0  0  0  0  0  0  0  0
    2.5981    3.0000    0.0000 O   0  0  0  0  0  0  0  0  0  0  0  0
    5.1962    3.0000    0.0000 O   0  0  0  0  0  0  0  0  0  0  0  0
    0.0000    4.0000    0.0000 C   0  0  0  0  0  0  0  0  0  0  0  0
    1.2990    4.7500    0.0000 C   0  0  0  0  0  0  0  0  0  0  0  0
    2.5981    4.0000    0.0000 C   0  0  0  0  0  0  0  0  0  0  0  0
    3.8971    4.7500    0.0000 C   0  0  0  0  0  0  0  0  0  0  0  0
    5.1962    4.0000    0.0000 C   0  0  0  0  0  0  0  0  0  0  0  0
    6.4952    4.7500    0.0000 C   0  0  0  0  0  0  0  0  0  0  0  0
    7.7942    4.0000    0.0000 C   0  0  0  0  0  0  0  0  0  0  0  0
    3.8971    6.2500    0.0000 C   0  0  0  0  0  0  0  0  0  0  0  0
    2.5981    7.0000    0.0000 O   0  0  0  0  0  0  0  0  0  0  0  0
    5.1962    7.0000    0.0000 O   0  0  0  0  0  1  0  0  0  0  0  0
  2  3  1  0
  3  4  1  0
  4  5  1  0
  5  6  1  0
  6  7  1  0
  7  8  1  0
  5  9  1  0
  9 10  2  0
  9 11  1  0
 12 13  1  0
 13 14  1  0
 14 15  1  0
 15 16  1  0
 16 17  1  0
 17 18  1  0
 15 19  1  0
 19 20  2  0
 19 21  1  0
M  CHG  2   1   1  21  -1
M  END
$$$$
674959
     RDKit          2D

 20 18  0  0  0  0  0  0  0  0999 V2000
    0.0000    7.0000    0.0000 Na  0  0  0  0  0 15  0  0  0  0  0  0
    0.0000    0.0000    0.0000 C   0  0  0  0  0  0  0  0  0  0  0  0
    1.2990    0.7500    0.0000 C   0  0  0  0  0  0  0  0  0  0  0  0
    2.5981   -0.0000    0.0000 C   0  0  0  0  0  0  0  0  0  0  0  0
    3.8971    0.7500    0.0000 C   0  0  0  0  0  0  0  0  0  0  0  0
    5.1962   -0.0000    0.0000 C   0  0  0  0  0  0  0  0  0  0  0  0
    6.4952    0.7500    0.0000 N   0  0  0  0  0  0  0  0  0  0  0  0
    7.7942   -0.0000    0.0000 C   0  0  0  0  0  0  0  0  0  0  0  0
    6.4952    2.2500    0.0000 C   0  0  0  0  0  0  0  0  0  0  0  0
    7.7942    3.0000    0.0000 C   0  0  0  0  0  0  0  0  0  0  0  0
    7.7942    4.5000    0.0000 C   0  0  0  0  0  0  0  0  0  0  0  0
    7.7942    6.0000    0.0000 O   0  0  0  0  0  0  0  0  0  0  0  0
    6.2942    4.5000    0.0000 P   0  0  0  0  0  0  0  0  0  0  0  0
    4.7942    4.5000    0.0000 O   0  0  0  0  0  0  0  0  0  0  0  0
    6.2942    6.0000    0.0000 O   0  0  0  0  0  0  0  0  0  0  0  0
    5.9313    3.0446    0.0000 O   0  0  0  0  0  0  0  0  0  0  0  0
    9.2942    4.5000    0.0000 P   0  0  0  0  0  0  0  0  0  0  0  0
   10.7942    4.5000    0.0000 O   0  0  0  0  0  0  0  0  0  0  0  0
    9.2942    3.0000    0.0000 O   0  0  0  0  0  0  0  0  0  0  0  0
    9.2942    6.0000    0.0000 O   0  0  0  0  0  1  0  0  0  0  0  0
  2  3  1  0
  3  4  1  0
  4  5  1  0
  5  6  1  0
  6  7  1  0
  7  8  1  0
  7  9  1  0
  9 10  1  0
 10 11  1  0
 11 12  1  0
 11 13  1  0
 13 14  2  0
 13 15  1  0
 13 16  1  0
 11 17  1  0
 17 18  2  0
 17 19  1  0
 17 20  1  0
M  CHG  2   1   1  20  -1
M  END
$$$$
674295
     RDKit          2D

 30 32  0  0  0  0  0  0  0  0999 V2000
    0.0000    2.2990    0.0000 Na  0  0  0  0  0 15  0  0  0  0  0  0
   -1.5000   -7.7942    0.0000 C   0  0  0  0  0  0  0  0  0  0  0  0
   -0.7500   -6.4952    0.0000 C   0  0  0  0  0  0  0  0  0  0  0  0
   -1.5000   -5.1962    0.0000 O   0  0  0  0  0  0  0  0  0  0  0  0
   -0.7500   -3.8971    0.0000 C   0  0  0  0  0  0  0  0  0  0  0  0
    0.7500   -3.8971    0.0000 C   0  0  0  0  0  0  0  0  0  0  0  0
    1.5000   -2.5981    0.0000 C   0  0  0  0  0  0  0  0  0  0  0  0
    0.7500   -1.2990    0.0000 C   0  0  0  0  0  0  0  0  0  0  0  0
    1.5000    0.0000    0.0000 C   0  0  0  0  0  0  0  0  0  0  0  0
    0.7500    1.2990    0.0000 C   0  0  0  0  0  0  0  0  0  0  0  0
   -0.7500    1.2990    0.0000 C   0  0  0  0  0  0  0  0  0  0  0  0
   -1.5000    0.0000    0.0000 C   0  0  0  0  0  0  0  0  0  0  0  0
   -0.7500   -1.2990    0.0000 C   0  0  0  0  0  0  0  0  0  0  0  0
   -1.5000   -2.5981    0.0000 C   0  0  0  0  0  0  0  0  0  0  0  0
   -3.0000   -2.5981    0.0000 C   0  0  0  0  0  0  0  0  0  0  0  0
   -3.7500   -1.2990    0.0000 O   0  0  0  0  0  0  0  0  0  0  0  0
   -3.7500   -3.8971    0.0000 N   0  0  0  0  0  0  0  0  0  0  0  0
   -5.2500   -3.8971    0.0000 C   0  0  0  0  0  0  0  0  0  0  0  0
   -6.3107   -4.9578    0.0000 C   0  0  0  0  0  0  0  0  0  0  0  0
   -6.9916   -6.2943    0.0000 S   0  0  0  0  0  0  0  0  0  0  0  0
   -8.4732   -6.0596    0.0000 C   0  0  0  0  0  0  0  0  0  0  0  0
   -8.5517   -7.5576    0.0000 C   0  0  0  0  0  0  0  0  0  0  0  0
   -9.9711   -6.1381    0.0000 C   0  0  0  0  0  0  0  0  0  0  0  0
   -8.7078   -4.5781    0.0000 C   0  0  0  0  0  0  0  0  0  0  0  0
   -7.3713   -3.8971    0.0000 N   0  0  0  0  0  0  0  0  0  0  0  0
   -6.3107   -2.8365    0.0000 C   0  0  0  0  0  0  0  0  0  0  0  0
   -6.3107   -1.3365    0.0000 O   0  0  0  0  0  0  0  0  0  0  0  0
  -10.0443   -3.8971    0.0000 C   0  0  0  0  0  0  0  0  0  0  0  0
  -11.3023   -4.7141    0.0000 O   0  0  0  0  0  0  0  0  0  0  0  0
  -10.1228   -2.3992    0.0000 O   0  0  0  0  0  1  0  0  0  0  0  0
  2  3  1  0
  3  4  1  0
  4  5  1  0
  5  6  2  0
  6  7  1  0
  7  8  2  0
  8  9  1  0
  9 10  2  0
 10 11  1  0
 11 12  2  0
 12 13  1  0
 13 14  2  0
 14 15  1  0
 15 16  2  0
 15 17  1  0
 18 17  1  1
 18 19  1  0
 19 20  1  1
 20 21  1  0
 21 22  1  0
 21 23  1  0
 21 24  1  0
 24 25  1  0
 25 26  1  0
 26 27  2  0
 24 28  1  6
 28 29  2  0
 28 30  1  0
 14  5  1  0
 13  8  1  0
 26 18  1  0
 25 19  1  0
M  CHG  2   1   1  30  -1
M  END
$$$$
30602
     RDKit          2D

 31 31  0  0  0  0  0  0  0  0999 V2000
    0.0000    6.1962    0.0000 Na  0  0  0  0  0 15  0  0  0  0  0  0
    7.5000   -0.0000    0.0000 C   0  0  0  0  0  0  0  0  0  0  0  0
    6.0000    0.0000    0.0000 C   0  0  0  0  0  0  0  0  0  0  0  0
    5.2500   -1.2990    0.0000 C   0  0  0  0  0  0  0  0  0  0  0  0
    6.0000   -2.5981    0.0000 C   0  0  0  0  0  0  0  0  0  0  0  0
    3.7500   -1.2990    0.0000 C   0  0  0  0  0  0  0  0  0  0  0  0
    3.0000   -2.5981    0.0000 O   0  0  0  0  0  0  0  0  0  0  0  0
    3.0000    0.0000    0.0000 O   0  0  0  0  0  0  0  0  0  0  0  0
    1.5000    0.0000    0.0000 C   0  0  0  0  0  0  0  0  0  0  0  0
    0.7500   -1.2990    0.0000 C   0  0  0  0  0  0  0  0  0  0  0  0
   -0.7500   -1.2990    0.0000 C   0  0  0  0  0  0  0  0  0  0  0  0
   -1.5000   -2.5981    0.0000 O   0  0  0  0  0  0  0  0  0  0  0  0
   -1.5000    0.0000    0.0000 C   0  0  0  0  0  0  0  0  0  0  0  0
   -0.7500    1.2990    0.0000 C   0  0  0  0  0  0  0  0  0  0  0  0
   -1.5000    2.5981    0.0000 C   0  0  0  0  0  0  0  0  0  0  0  0
   -0.7500    3.8971    0.0000 C   0  0  0  0  0  0  0  0  0  0  0  0
    0.7500    3.8971    0.0000 C   0  0  0  0  0  0  0  0  0  0  0  0
    1.5000    5.1962    0.0000 C   0  0  0  0  0  0  0  0  0  0  0  0
    1.5000    2.5981    0.0000 C   0  0  0  0  0  0  0  0  0  0  0  0
    3.0000    2.5981    0.0000 C   0  0  0  0  0  0  0  0  0  0  0  0
    3.7500    3.8971    0.0000 C   0  0  0  0  0  0  0  0  0  0  0  0
    5.2500    3.8971    0.0000 C   0  0  0  0  0  0  0  0  0  0  0  0
    6.0000    5.1962    0.0000 O   0  0  0  0  0  0  0  0  0  0  0  0
    6.0000    2.5981    0.0000 C   0  0  0  0  0  0  0  0  0  0  0  0
    7.5000    2.5981    0.0000 C   0  0  0  0  0  0  0  0  0  0  0  0
    8.2500    3.8971    0.0000 O   0  0  0  0  0  0  0  0  0  0  0  0
    8.2500    1.2990    0.0000 C   0  0  0  0  0  0  0  0  0  0  0  0
    9.7500    1.2990    0.0000 C   0  0  0  0  0  0  0  0  0  0  0  0
   10.5000    2.5981    0.0000 O   0  0  0  0  0  0  0  0  0  0  0  0
   10.5000    0.0000    0.0000 O   0  0  0  0  0  1  0  0  0  0  0  0
    0.7500    1.2990    0.0000 C   0  0  0  0  0  0  0  0  0  0  0  0
  2  3  1  0
  3  4  1  0
  4  5  1  6
  4  6  1  0
  6  7  2  0
  6  8  1  0
  9  8  1  1
  9 10  1  0
 10 11  1  0
 11 12  1  6
 11 13  1  0
 13 14  2  0
 14 15  1  0
 15 16  2  0
 16 17  1  0
 17 18  1  6
 17 19  1  0
 19 20  1  6
 20 21  1  0
 21 22  1  0
 22 23  1  1
 22 24  1  0
 24 25  1  0
 25 26  1  1
 25 27  1  0
 27 28  1  0
 28 29  2  0
 28 30  1  0
 19 31  1  0
 31  9  1  0
 31 14  1  1
M  CHG  2   1   1  30  -1
M  END
$$$$
674984
     RDKit          2D

 20 19  0  0  0  0  0  0  0  0999 V2000
    7.0000    0.0000    0.0000 Na  0  0  0  0  0 15  0  0  0  0  0  0
    6.0000   -2.5981    0.0000 C   0  0  0  0  0  0  0  0  0  0  0  0
    5.2500   -1.2990    0.0000 N   0  0  0  0  0  0  0  0  0  0  0  0
    6.0000    0.0000    0.0000 C   0  0  0  0  0  0  0  0  0  0  0  0
    3.7500   -1.2990    0.0000 C   0  0  0  0  0  0  0  0  0  0  0  0
    3.0000    0.0000    0.0000 N   0  0  0  0  0  0  0  0  0  0  0  0
    1.5000    0.0000    0.0000 C   0  0  0  0  0  0  0  0  0  0  0  0
    0.7500   -1.2990    0.0000 C   0  0  0  0  0  0  0  0  0  0  0  0
    1.5000   -2.5981    0.0000 I   0  0  0  0  0  0  0  0  0  0  0  0
   -0.7500   -1.2990    0.0000 C   0  0  0  0  0  0  0  0  0  0  0  0
   -1.5000    0.0000    0.0000 C   0  0  0  0  0  0  0  0  0  0  0  0
   -3.0000    0.0000    0.0000 I   0  0  0  0  0  0  0  0  0  0  0  0
   -0.7500    1.2990    0.0000 C   0  0  0  0  0  0  0  0  0  0  0  0
   -1.5000    2.5981    0.0000 C   0  0  0  0  0  0  0  0  0  0  0  0
   -0.7500    3.8971    0.0000 C   0  0  0  0  0  0  0  0  0  0  0  0
   -1.5000    5.1962    0.0000 C   0  0  0  0  0  0  0  0  0  0  0  0
   -3.0000    5.1962    0.0000 O   0  0  0  0  0  0  0  0  0  0  0  0
   -0.7500    6.4952    0.0000 O   0  0  0  0  0  1  0  0  0  0  0  0
    0.7500    1.2990    0.0000 C   0  0  0  0  0  0  0  0  0  0  0  0
    1.5000    2.5981    0.0000 I   0  0  0  0  0  0  0  0  0  0  0  0
  2  3  1  0
  3  4  1  0
  3  5  1  0
  5  6  2  0
  6  7  1  0
  7  8  2  0
  8  9  1  0
  8 10  1  0
 10 11  2  0
 11 12  1  0
 11 13  1  0
 13 14  1  0
 14 15  1  0
 15 16  1  0
 16 17  2  0
 16 18  1  0
 13 19  2  0
 19 20  1  0
 19  7  1  0
M  CHG  2   1   1  18  -1
M  END
$$$$
674529
     RDKit          2D

 19 18  0  0  0  0  0  0  0  0999 V2000
    0.0000    6.1517    0.0000 Na  0  0  0  0  0 15  0  0  0  0  0  0
   -2.9499    4.2246    0.0000 C   0  0  0  0  0  0  0  0  0  0  0  0
   -1.8351    3.2209    0.0000 N   0  0  0  0  0  0  0  0  0  0  0  0
   -0.4086    3.6844    0.0000 C   0  0  0  0  0  0  0  0  0  0  0  0
   -0.0967    5.1517    0.0000 O   0  0  0  0  0  0  0  0  0  0  0  0
    0.7062    2.6807    0.0000 N   0  0  0  0  0  0  0  0  0  0  0  0
    2.1328    3.1443    0.0000 C   0  0  0  0  0  0  0  0  0  0  0  0
    0.3943    1.2135    0.0000 C   0  0  0  0  0  0  0  0  0  0  0  0
    1.2760    0.0000    0.0000 N   0  0  0  0  0  0  0  0  0  0  0  0
    0.3943   -1.2135    0.0000 C   0  0  0  0  0  0  0  0  0  0  0  0
   -1.0323   -0.7500    0.0000 N   0  0  0  0  0  0  0  0  0  0  0  0
   -1.0323    0.7500    0.0000 C   0  0  0  0  0  0  0  0  0  0  0  0
   -2.1470    1.7537    0.0000 C   0  0  0  0  0  0  0  0  0  0  0  0
   -3.5736    1.2902    0.0000 O   0  0  0  0  0  0  0  0  0  0  0  0
    3.1328    0.7500    0.0000 N   0  0  0  0  0  0  0  0  0  0  0  0
    4.4318    0.0000    0.0000 C   0  0  0  0  0  0  0  0  0  0  0  0
    5.7308    0.7500    0.0000 C   0  0  0  0  0  0  0  0  0  0  0  0
    5.7308    2.2500    0.0000 O   0  0  0  0  0  0  0  0  0  0  0  0
    7.0299   -0.0000    0.0000 O   0  0  0  0  0  1  0  0  0  0  0  0
  2  3  1  0
  3  4  1  0
  4  5  2  0
  4  6  1  0
  6  7  1  0
  6  8  1  0
  8  9  1  0
  9 10  2  0
 10 11  1  0
 11 12  1  0
 12 13  1  0
 13 14  2  0
 15 16  1  0
 16 17  1  0
 17 18  2  0
 17 19  1  0
 13  3  1  0
 12  8  2  0
M  CHG  2   1   1  19  -1
M  END
$$$$
1626792
     RDKit          2D

 53 58  0  0  0  0  0  0  0  0999 V2000
    0.0000    4.3705    0.0000 Na  0  0  0  0  0 15  0  0  0  0  0  0
   -9.4994  -13.6502    0.0000 C   0  0  0  0  0  0  0  0  0  0  0  0
   -8.0661  -13.2081    0.0000 O   0  0  0  0  0  0  0  0  0  0  0  0
   -7.7323  -11.7457    0.0000 C   0  0  0  0  0  0  0  0  0  0  0  0
   -6.2989  -11.3035    0.0000 C   0  0  0  0  0  0  0  0  0  0  0  0
   -5.9652   -9.8411    0.0000 C   0  0  0  0  0  0  0  0  0  0  0  0
   -7.0647   -8.8209    0.0000 C   0  0  0  0  0  0  0  0  0  0  0  0
   -6.7310   -7.3585    0.0000 C   0  0  0  0  0  0  0  0  0  0  0  0
   -5.2976   -6.9164    0.0000 O   0  0  0  0  0  0  0  0  0  0  0  0
   -4.9638   -5.4540    0.0000 C   0  0  0  0  0  0  0  0  0  0  0  0
   -3.5845   -4.8644    0.0000 C   0  0  0  0  0  0  0  0  0  0  0  0
   -3.7190   -3.3705    0.0000 C   0  0  0  0  0  0  0  0  0  0  0  0
   -5.1814   -3.0367    0.0000 C   0  0  0  0  0  0  0  0  0  0  0  0
   -5.9507   -4.3244    0.0000 C   0  0  0  0  0  0  0  0  0  0  0  0
   -6.3541   -2.1015    0.0000 C   0  0  0  0  0  0  0  0  0  0  0  0
   -7.5269   -3.0367    0.0000 O   0  0  0  0  0  0  0  0  0  0  0  0
   -7.0049   -0.7500    0.0000 N   0  0  0  0  0  0  0  0  0  0  0  0
   -8.4673   -1.0838    0.0000 C   0  0  0  0  0  0  0  0  0  0  0  0
   -7.0049    0.7500    0.0000 C   0  0  0  0  0  0  0  0  0  0  0  0
   -6.3541    2.1015    0.0000 C   0  0  0  0  0  0  0  0  0  0  0  0
   -5.1814    3.0367    0.0000 C   0  0  0  0  0  0  0  0  0  0  0  0
   -3.7190    3.3705    0.0000 C   0  0  0  0  0  0  0  0  0  0  0  0
   -2.2566    3.0367    0.0000 C   0  0  0  0  0  0  0  0  0  0  0  0
   -1.0838    2.1015    0.0000 C   0  0  0  0  0  0  0  0  0  0  0  0
   -0.4330    0.7500    0.0000 C   0  0  0  0  0  0  0  0  0  0  0  0
    0.8660    0.0000    0.0000 C   0  0  0  0  0  0  0  0  0  0  0  0
   -0.4330   -0.7500    0.0000 C   0  0  0  0  0  0  0  0  0  0  0  0
   -1.0838   -2.1015    0.0000 N   0  0  0  0  0  0  0  0  0  0  0  0
   -2.2566   -3.0367    0.0000 C   0  0  0  0  0  0  0  0  0  0  0  0
   -1.6058   -4.3881    0.0000 O   0  0  0  0  0  0  0  0  0  0  0  0
    0.6666   -1.7703    0.0000 C   0  0  0  0  0  0  0  0  0  0  0  0
    0.3328   -3.2327    0.0000 O   0  0  0  0  0  0  0  0  0  0  0  0
    2.0999   -1.3281    0.0000 N   0  0  0  0  0  2  0  0  0  0  0  0
    3.1995   -2.3484    0.0000 S   0  0  0  0  0  0  0  0  0  0  0  0
    2.1792   -3.4480    0.0000 O   0  0  0  0  0  0  0  0  0  0  0  0
    4.2198   -1.2488    0.0000 O   0  0  0  0  0  0  0  0  0  0  0  0
    4.2991   -3.3686    0.0000 C   0  0  0  0  0  0  0  0  0  0  0  0
    5.7615   -3.7024    0.0000 C   0  0  0  0  0  0  0  0  0  0  0  0
    4.7412   -4.8020    0.0000 C   0  0  0  0  0  0  0  0  0  0  0  0
   -7.8305   -6.3382    0.0000 C   0  0  0  0  0  0  0  0  0  0  0  0
   -9.2639   -6.7804    0.0000 C   0  0  0  0  0  0  0  0  0  0  0  0
   -9.5977   -8.2428    0.0000 N   0  0  0  0  0  0  0  0  0  0  0  0
   -8.4981   -9.2630    0.0000 C   0  0  0  0  0  0  0  0  0  0  0  0
   -8.8319  -10.7254    0.0000 C   0  0  0  0  0  0  0  0  0  0  0  0
  -10.2652  -11.1675    0.0000 C   0  0  0  0  0  0  0  0  0  0  0  0
  -10.3635   -5.7601    0.0000 C   0  0  0  0  0  0  0  0  0  0  0  0
  -11.8352   -6.0500    0.0000 N   0  0  0  0  0  0  0  0  0  0  0  0
  -12.5657   -4.7399    0.0000 C   0  0  0  0  0  0  0  0  0  0  0  0
  -11.5454   -3.6403    0.0000 C   0  0  0  0  0  0  0  0  0  0  0  0
  -10.1844   -4.2708    0.0000 S   0  0  0  0  0  0  0  0  0  0  0  0
  -14.0549   -4.5608    0.0000 C   0  0  0  0  0  0  0  0  0  0  0  0
  -14.6445   -3.1815    0.0000 C   0  0  0  0  0  0  0  0  0  0  0  0
  -14.9547   -5.7610    0.0000 C   0  0  0  0  0  0  0  0  0  0  0  0
  2  3  1  0
  3  4  1  0
  4  5  2  0
  5  6  1  0
  6  7  2  0
  7  8  1  0
  8  9  1  0
 10  9  1  1
 10 11  1  0
 12 11  1  6
 12 13  1  0
 13 14  1  1
 13 15  1  0
 15 16  2  0
 15 17  1  0
 17 18  1  0
 17 19  1  0
 19 20  1  0
 20 21  1  0
 21 22  1  0
 22 23  1  0
 23 24  2  0
 24 25  1  0
 25 26  1  6
 26 27  1  0
 27 28  1  0
 28 29  1  0
 29 30  2  0
 27 31  1  6
 31 32  2  0
 31 33  1  0
 33 34  1  0
 34 35  2  0
 34 36  2  0
 34 37  1  0
 37 38  1  0
 38 39  1  0
  8 40  2  0
 40 41  1  0
 41 42  2  0
 42 43  1  0
 43 44  2  0
 44 45  1  0
 41 46  1  0
 46 47  2  0
 47 48  1  0
 48 49  2  0
 49 50  1  0
 48 51  1  0
 51 52  1  0
 51 53  1  0
 44  4  1  0
 43  7  1  0
 14 10  1  0
 29 12  1  0
 27 25  1  0
 39 37  1  0
 50 46  1  0
M  CHG  2   1   1  33  -1
M  END
$$$$
674757
     RDKit          2D

 18 18  0  0  0  0  0  0  0  0999 V2000
    0.0000    3.5981    0.0000 Na  0  0  0  0  0 15  0  0  0  0  0  0
    3.7500   -1.2990    0.0000 C   0  0  0  0  0  0  0  0  0  0  0  0
    3.0000    0.0000    0.0000 O   0  0  0  0  0  0  0  0  0  0  0  0
    1.5000    0.0000    0.0000 C   0  0  0  0  0  0  0  0  0  0  0  0
    0.7500   -1.2990    0.0000 C   0  0  0  0  0  0  0  0  0  0  0  0
   -0.7500   -1.2990    0.0000 C   0  0  0  0  0  0  0  0  0  0  0  0
   -1.5000    0.0000    0.0000 C   0  0  0  0  0  0  0  0  0  0  0  0
   -3.0000    0.0000    0.0000 C   0  0  0  0  0  0  0  0  0  0  0  0
   -3.7500    1.2990    0.0000 C   0  0  0  0  0  0  0  0  0  0  0  0
   -3.0000    2.5981    0.0000 C   0  0  0  0  0  0  0  0  0  0  0  0
   -1.5000    2.5981    0.0000 C   0  0  0  0  0  0  0  0  0  0  0  0
   -0.7500    1.2990    0.0000 C   0  0  0  0  0  0  0  0  0  0  0  0
    0.7500    1.2990    0.0000 C   0  0  0  0  0  0  0  0  0  0  0  0
   -5.2500    1.2990    0.0000 C   0  0  0  0  0  0  0  0  0  0  0  0
   -6.0000    2.5981    0.0000 C   0  0  0  0  0  0  0  0  0  0  0  0
   -6.0000    0.0000    0.0000 C   0  0  0  0  0  0  0  0  0  0  0  0
   -5.2500   -1.2990    0.0000 O   0  0  0  0  0  0  0  0  0  0  0  0
   -7.5000    0.0000    0.0000 O   0  0  0  0  0  1  0  0  0  0  0  0
  2  3  1  0
  3  4  1  0
  4  5  2  0
  5  6  1  0
  6  7  2  0
  7  8  1  0
  8  9  2  0
  9 10  1  0
 10 11  2  0
 11 12  1  0
 12 13  2  0
  9 14  1  0
 14 15  1  1
 14 16  1  0
 16 17  2  0
 16 18  1  0
 13  4  1  0
 12  7  1  0
M  CHG  2   1   1  18  -1
M  END
$$$$
674359
     RDKit          2D

 27 28  0  0  0  0  0  0  0  0999 V2000
    4.7500    0.0000    0.0000 Na  0  0  0  0  0 15  0  0  0  0  0  0
    1.2990  -11.8573    0.0000 C   0  0  0  0  0  0  0  0  0  0  0  0
    1.2990  -10.3573    0.0000 O   0  0  0  0  0  0  0  0  0  0  0  0
   -0.0000   -9.6073    0.0000 C   0  0  0  0  0  0  0  0  0  0  0  0
   -1.2990  -10.3573    0.0000 C   0  0  0  0  0  0  0  0  0  0  0  0
   -2.5981   -9.6073    0.0000 C   0  0  0  0  0  0  0  0  0  0  0  0
   -2.5981   -8.1073    0.0000 N   0  0  0  0  0  0  0  0  0  0  0  0
   -1.2990   -7.3573    0.0000 C   0  0  0  0  0  0  0  0  0  0  0  0
   -1.2990   -5.8573    0.0000 C   0  0  0  0  0  0  0  0  0  0  0  0
   -0.0000   -5.1073    0.0000 S   0  0  0  0  0  3  0  0  0  0  0  0
    1.2990   -5.8573    0.0000 O   0  0  0  0  0  1  0  0  0  0  0  0
   -0.0000   -3.6073    0.0000 C   0  0  0  0  0  0  0  0  0  0  0  0
    1.2135   -2.7256    0.0000 N   0  0  0  0  0  0  0  0  0  0  0  0
    0.7500   -1.2990    0.0000 C   0  0  0  0  0  0  0  0  0  0  0  0
    1.5000    0.0000    0.0000 C   0  0  0  0  0  0  0  0  0  0  0  0
    0.7500    1.2990    0.0000 C   0  0  0  0  0  0  0  0  0  0  0  0
    1.5000    2.5981    0.0000 O   0  0  0  0  0  0  0  0  0  0  0  0
    3.0000    2.5981    0.0000 C   0  0  0  0  0  0  0  0  0  0  0  0
    3.7500    3.8971    0.0000 F   0  0  0  0  0  0  0  0  0  0  0  0
    3.7500    1.2990    0.0000 F   0  0  0  0  0  0  0  0  0  0  0  0
   -0.7500    1.2990    0.0000 C   0  0  0  0  0  0  0  0  0  0  0  0
   -1.5000    0.0000    0.0000 C   0  0  0  0  0  0  0  0  0  0  0  0
   -0.7500   -1.2990    0.0000 C   0  0  0  0  0  0  0  0  0  0  0  0
   -1.2135   -2.7256    0.0000 N   0  0  0  0  0  2  0  0  0  0  0  0
   -0.0000   -8.1073    0.0000 C   0  0  0  0  0  0  0  0  0  0  0  0
    1.2990   -7.3573    0.0000 O   0  0  0  0  0  0  0  0  0  0  0  0
    2.5981   -8.1073    0.0000 C   0  0  0  0  0  0  0  0  0  0  0  0
  2  3  1  0
  3  4  1  0
  4  5  2  0
  5  6  1  0
  6  7  2  0
  7  8  1  0
  8  9  1  0
  9 10  1  0
 10 11  1  0
 10 12  1  0
 12 13  2  0
 13 14  1  0
 14 15  2  0
 15 16  1  0
 16 17  1  0
 17 18  1  0
 18 19  1  0
 18 20  1  0
 16 21  2  0
 21 22  1  0
 22 23  2  0
 23 24  1  0
  8 25  2  0
 25 26  1  0
 26 27  1  0
 25  4  1  0
 24 12  1  0
 23 14  1  0
M  CHG  4   1   1  10   1  11  -1  24  -1
M  END
$$$$
674514
     RDKit          2D

 34 34  0  0  0  0  0  0  0  0999 V2000
    0.0000    8.7942    0.0000 Na  0  0  0  0  0 15  0  0  0  0  0  0
    5.2500   -1.2990    0.0000 C   0  0  0  0  0  0  0  0  0  0  0  0
    3.7500   -1.2990    0.0000 O   0  0  0  0  0  0  0  0  0  0  0  0
    3.0000    0.0000    0.0000 C   0  0  0  0  0  0  0  0  0  0  0  0
    1.5000    0.0000    0.0000 C   0  0  0  0  0  0  0  0  0  0  0  0
    0.7500   -1.2990    0.0000 C   0  0  0  0  0  0  0  0  0  0  0  0
   -0.7500   -1.2990    0.0000 N   0  0  0  0  0  0  0  0  0  0  0  0
   -1.5000    0.0000    0.0000 C   0  0  0  0  0  0  0  0  0  0  0  0
   -3.0000    0.0000    0.0000 C   0  0  0  0  0  0  0  0  0  0  0  0
   -3.7500   -1.2990    0.0000 C   0  0  0  0  0  0  0  0  0  0  0  0
   -3.7500    1.2990    0.0000 C   0  0  0  0  0  0  0  0  0  0  0  0
   -0.7500    1.2990    0.0000 C   0  0  0  0  0  0  0  0  0  0  0  0
   -1.5000    2.5981    0.0000 C   0  0  0  0  0  0  0  0  0  0  0  0
   -3.0000    2.5981    0.0000 C   0  0  0  0  0  0  0  0  0  0  0  0
   -3.7500    3.8971    0.0000 C   0  0  0  0  0  0  0  0  0  0  0  0
   -3.0000    5.1962    0.0000 O   0  0  0  0  0  0  0  0  0  0  0  0
   -5.2500    3.8971    0.0000 C   0  0  0  0  0  0  0  0  0  0  0  0
   -6.0000    5.1962    0.0000 C   0  0  0  0  0  0  0  0  0  0  0  0
   -5.2500    6.4952    0.0000 O   0  0  0  0  0  0  0  0  0  0  0  0
   -7.5000    5.1962    0.0000 C   0  0  0  0  0  0  0  0  0  0  0  0
   -8.2500    6.4952    0.0000 C   0  0  0  0  0  0  0  0  0  0  0  0
   -7.5000    7.7942    0.0000 O   0  0  0  0  0  0  0  0  0  0  0  0
   -9.7500    6.4952    0.0000 O   0  0  0  0  0  1  0  0  0  0  0  0
    0.7500    1.2990    0.0000 C   0  0  0  0  0  0  0  0  0  0  0  0
    1.5000    2.5981    0.0000 C   0  0  0  0  0  0  0  0  0  0  0  0
    3.0000    2.5981    0.0000 C   0  0  0  0  0  0  0  0  0  0  0  0
    3.7500    3.8971    0.0000 C   0  0  0  0  0  0  0  0  0  0  0  0
    3.0000    5.1962    0.0000 C   0  0  0  0  0  0  0  0  0  0  0  0
    3.7500    6.4952    0.0000 F   0  0  0  0  0  0  0  0  0  0  0  0
    1.5000    5.1962    0.0000 C   0  0  0  0  0  0  0  0  0  0  0  0
    0.7500    3.8971    0.0000 C   0  0  0  0  0  0  0  0  0  0  0  0
    1.5000   -2.5981    0.0000 C   0  0  0  0  0  0  0  0  0  0  0  0
    0.7500   -3.8971    0.0000 C   0  0  0  0  0  0  0  0  0  0  0  0
    3.0000   -2.5981    0.0000 C   0  0  0  0  0  0  0  0  0  0  0  0
  2  3  1  0
  3  4  1  0
  4  5  1  0
  5  6  2  0
  6  7  1  0
  7  8  2  0
  8  9  1  0
  9 10  1  0
  9 11  1  0
  8 12  1  0
 12 13  1  0
 13 14  2  0
 14 15  1  0
 15 16  1  6
 15 17  1  0
 17 18  1  0
 18 19  1  6
 18 20  1  0
 20 21  1  0
 21 22  2  0
 21 23  1  0
 12 24  2  0
 24 25  1  0
 25 26  2  0
 26 27  1  0
 27 28  2  0
 28 29  1  0
 28 30  1  0
 30 31  2  0
  6 32  1  0
 32 33  1  0
 32 34  1  0
 24  5  1  0
 31 25  1  0
M  CHG  2   1   1  23  -1
M  END
$$$$
674881
     RDKit          2D

 26 27  0  0  0  0  0  0  0  0999 V2000
    4.8971    0.0000    0.0000 Na  0  0  0  0  0 15  0  0  0  0  0  0
    3.8971  -16.3573    0.0000 C   0  0  0  0  0  0  0  0  0  0  0  0
    3.8971  -14.8573    0.0000 O   0  0  0  0  0  0  0  0  0  0  0  0
    2.5981  -14.1073    0.0000 C   0  0  0  0  0  0  0  0  0  0  0  0
    2.5981  -12.6073    0.0000 C   0  0  0  0  0  0  0  0  0  0  0  0
    1.2990  -11.8573    0.0000 C   0  0  0  0  0  0  0  0  0  0  0  0
    1.2990  -10.3573    0.0000 O   0  0  0  0  0  0  0  0  0  0  0  0
   -0.0000   -9.6073    0.0000 C   0  0  0  0  0  0  0  0  0  0  0  0
   -1.2990  -10.3573    0.0000 C   0  0  0  0  0  0  0  0  0  0  0  0
   -2.5981   -9.6073    0.0000 C   0  0  0  0  0  0  0  0  0  0  0  0
   -2.5981   -8.1073    0.0000 N   0  0  0  0  0  0  0  0  0  0  0  0
   -1.2990   -7.3573    0.0000 C   0  0  0  0  0  0  0  0  0  0  0  0
   -1.2990   -5.8573    0.0000 C   0  0  0  0  0  0  0  0  0  0  0  0
   -0.0000   -5.1073    0.0000 S   0  0  0  0  0  3  0  0  0  0  0  0
    1.2990   -5.8573    0.0000 O   0  0  0  0  0  1  0  0  0  0  0  0
   -0.0000   -3.6073    0.0000 C   0  0  0  0  0  0  0  0  0  0  0  0
    1.2135   -2.7256    0.0000 N   0  0  0  0  0  0  0  0  0  0  0  0
    0.7500   -1.2990    0.0000 C   0  0  0  0  0  0  0  0  0  0  0  0
    1.5000    0.0000    0.0000 C   0  0  0  0  0  0  0  0  0  0  0  0
    0.7500    1.2990    0.0000 C   0  0  0  0  0  0  0  0  0  0  0  0
   -0.7500    1.2990    0.0000 C   0  0  0  0  0  0  0  0  0  0  0  0
   -1.5000    0.0000    0.0000 C   0  0  0  0  0  0  0  0  0  0  0  0
   -0.7500   -1.2990    0.0000 C   0  0  0  0  0  0  0  0  0  0  0  0
   -1.2135   -2.7256    0.0000 N   0  0  0  0  0  2  0  0  0  0  0  0
   -0.0000   -8.1073    0.0000 C   0  0  0  0  0  0  0  0  0  0  0  0
    1.2990   -7.3573    0.0000 C   0  0  0  0  0  0  0  0  0  0  0  0
  2  3  1  0
  3  4  1  0
  4  5  1  0
  5  6  1  0
  6  7  1  0
  7  8  1  0
  8  9  2  0
  9 10  1  0
 10 11  2  0
 11 12  1  0
 12 13  1  0
 13 14  1  0
 14 15  1  0
 14 16  1  0
 16 17  2  0
 17 18  1  0
 18 19  2  0
 19 20  1  0
 20 21  2  0
 21 22  1  0
 22 23  2  0
 23 24  1  0
 12 25  2  0
 25 26  1  0
 25  8  1  0
 24 16  1  0
 23 18  1  0
M  CHG  4   1   1  14   1  15  -1  24  -1
M  END
$$$$
1672744
     RDKit          2D

 45 47  0  0  0  0  0  0  0  0999 V2000
    0.0000   11.3923    0.0000 Na  0  0  0  0  0 15  0  0  0  0  0  0
    8.2500   -3.8971    0.0000 C   0  0  0  0  0  0  0  0  0  0  0  0
    7.5000   -2.5981    0.0000 O   0  0  0  0  0  0  0  0  0  0  0  0
    6.0000   -2.5981    0.0000 C   0  0  0  0  0  0  0  0  0  0  0  0
    5.2500   -3.8971    0.0000 C   0  0  0  0  0  0  0  0  0  0  0  0
    6.0000   -5.1962    0.0000 O   0  0  0  0  0  0  0  0  0  0  0  0
    5.2500   -6.4952    0.0000 C   0  0  0  0  0  0  0  0  0  0  0  0
    3.7500   -6.4952    0.0000 O   0  0  0  0  0  0  0  0  0  0  0  0
    6.0000   -7.7942    0.0000 N   0  0  0  0  0  0  0  0  0  0  0  0
    3.7500   -3.8971    0.0000 C   0  0  0  0  0  0  0  0  0  0  0  0
    3.0000   -5.1962    0.0000 O   0  0  0  0  0  0  0  0  0  0  0  0
    3.0000   -2.5981    0.0000 C   0  0  0  0  0  0  0  0  0  0  0  0
    1.5000   -2.5981    0.0000 O   0  0  0  0  0  0  0  0  0  0  0  0
    0.7500   -1.2990    0.0000 C   0  0  0  0  0  0  0  0  0  0  0  0
    1.5000    0.0000    0.0000 C   0  0  0  0  0  0  0  0  0  0  0  0
    0.7500    1.2990    0.0000 C   0  0  0  0  0  0  0  0  0  0  0  0
   -0.7500    1.2990    0.0000 C   0  0  0  0  0  0  0  0  0  0  0  0
   -1.5000    2.5981    0.0000 C   0  0  0  0  0  0  0  0  0  0  0  0
   -3.0000    2.5981    0.0000 C   0  0  0  0  0  0  0  0  0  0  0  0
   -3.7500    3.8971    0.0000 N   0  0  0  0  0  0  0  0  0  0  0  0
   -3.0000    5.1962    0.0000 C   0  0  0  0  0  0  0  0  0  0  0  0
   -1.5000    5.1962    0.0000 O   0  0  0  0  0  0  0  0  0  0  0  0
   -3.7500    6.4952    0.0000 C   0  0  0  0  0  0  0  0  0  0  0  0
   -3.0000    7.7942    0.0000 C   0  0  0  0  0  0  0  0  0  0  0  0
   -3.7500    9.0933    0.0000 C   0  0  0  0  0  0  0  0  0  0  0  0
   -5.2500    9.0933    0.0000 C   0  0  0  0  0  0  0  0  0  0  0  0
   -6.0000   10.3923    0.0000 O   0  0  0  0  0  0  0  0  0  0  0  0
   -6.0000    7.7942    0.0000 C   0  0  0  0  0  0  0  0  0  0  0  0
   -7.5000    7.7942    0.0000 C   0  0  0  0  0  0  0  0  0  0  0  0
   -8.2500    6.4952    0.0000 C   0  0  0  0  0  0  0  0  0  0  0  0
   -9.7500    6.4952    0.0000 C   0  0  0  0  0  0  0  0  0  0  0  0
  -10.5000    5.1962    0.0000 C   0  0  0  0  0  0  0  0  0  0  0  0
  -10.5000    7.7942    0.0000 C   0  0  0  0  0  0  0  0  0  0  0  0
   -5.2500    6.4952    0.0000 C   0  0  0  0  0  0  0  0  0  0  0  0
   -3.7500    1.2990    0.0000 C   0  0  0  0  0  0  0  0  0  0  0  0
   -5.2500    1.2990    0.0000 O   0  0  0  0  0  0  0  0  0  0  0  0
   -3.0000    0.0000    0.0000 O   0  0  0  0  0  0  0  0  0  0  0  0
   -1.5000    0.0000    0.0000 C   0  0  0  0  0  0  0  0  0  0  0  0
   -0.7500   -1.2990    0.0000 C   0  0  0  0  0  0  0  0  0  0  0  0
   -1.5000   -2.5981    0.0000 C   0  0  0  0  0  0  0  0  0  0  0  0
   -0.7500    3.8971    0.0000 O   0  0  0  0  0  1  0  0  0  0  0  0
    3.7500   -1.2990    0.0000 O   0  0  0  0  0  0  0  0  0  0  0  0
    5.2500   -1.2990    0.0000 C   0  0  0  0  0  0  0  0  0  0  0  0
    4.9895    0.1782    0.0000 C   0  0  0  0  0  0  0  0  0  0  0  0
    6.6595   -0.7860    0.0000 C   0  0  0  0  0  0  0  0  0  0  0  0
  2  3  1  0
  4  3  1  6
  4  5  1  0
  5  6  1  1
  6  7  1  0
  7  8  2  0
  7  9  1  0
  5 10  1  0
 10 11  1  1
 10 12  1  0
 12 13  1  6
 13 14  1  0
 14 15  2  0
 15 16  1  0
 16 17  2  0
 17 18  1  0
 18 19  2  0
 19 20  1  0
 20 21  1  0
 21 22  2  0
 21 23  1  0
 23 24  2  0
 24 25  1  0
 25 26  2  0
 26 27  1  0
 26 28  1  0
 28 29  1  0
 29 30  1  0
 30 31  2  0
 31 32  1  0
 31 33  1  0
 28 34  2  0
 19 35  1  0
 35 36  2  0
 35 37  1  0
 37 38  1  0
 38 39  2  0
 39 40  1  0
 18 41  1  0
 12 42  1  0
 42 43  1  0
 43 44  1  0
 43 45  1  0
 43  4  1  0
 39 14  1  0
 38 17  1  0
 34 23  1  0
M  CHG  2   1   1  41  -1
M  END
$$$$
685006
     RDKit          2D

 31 33  0  0  0  0  0  0  0  0999 V2000
    4.0000    0.0000    0.0000 Na  0  0  0  0  0 15  0  0  0  0  0  0
    3.0000    0.0000    0.0000 C   0  0  0  0  0  0  0  0  0  0  0  0
    1.5000    0.0000    0.0000 C   0  0  0  0  0  0  0  0  0  0  0  0
    0.7500   -1.2990    0.0000 C   0  0  0  0  0  0  0  0  0  0  0  0
   -0.7500   -1.2990    0.0000 C   0  0  0  0  0  0  0  0  0  0  0  0
   -1.5000    0.0000    0.0000 O   0  0  0  0  0  0  0  0  0  0  0  0
   -0.7500    1.2990    0.0000 C   0  0  0  0  0  0  0  0  0  0  0  0
   -1.5000    2.5981    0.0000 C   0  0  0  0  0  0  0  0  0  0  0  0
   -0.7500    3.8971    0.0000 N   0  0  0  0  0  0  0  0  0  0  0  0
   -1.5000    5.1962    0.0000 C   0  0  0  0  0  0  0  0  0  0  0  0
   -0.7500    6.4952    0.0000 C   0  0  0  0  0  0  0  0  0  0  0  0
   -1.5000    7.7942    0.0000 C   0  0  0  0  0  0  0  0  0  0  0  0
   -3.0000    7.7942    0.0000 O   0  0  0  0  0  0  0  0  0  0  0  0
   -0.7500    9.0933    0.0000 N   0  0  0  0  0  0  0  0  0  0  0  0
   -1.5000   10.3923    0.0000 C   0  0  0  0  0  0  0  0  0  0  0  0
   -0.7500   11.6913    0.0000 C   0  0  0  0  0  0  0  0  0  0  0  0
    0.7500   11.6913    0.0000 C   0  0  0  0  0  0  0  0  0  0  0  0
    1.5000   12.9904    0.0000 C   0  0  0  0  0  0  0  0  0  0  0  0
    0.7500   14.2894    0.0000 C   0  0  0  0  0  0  0  0  0  0  0  0
    1.5000   15.5885    0.0000 F   0  0  0  0  0  0  0  0  0  0  0  0
   -0.7500   14.2894    0.0000 C   0  0  0  0  0  0  0  0  0  0  0  0
   -1.5000   12.9904    0.0000 C   0  0  0  0  0  0  0  0  0  0  0  0
   -3.0000   12.9904    0.0000 F   0  0  0  0  0  0  0  0  0  0  0  0
    0.7500    6.4952    0.0000 C   0  0  0  0  0  0  0  0  0  0  0  0
    1.5000    7.7942    0.0000 O   0  0  0  0  0  0  0  0  0  0  0  0
    1.5000    5.1962    0.0000 C   0  0  0  0  0  0  0  0  0  0  0  0
    0.7500    3.8971    0.0000 C   0  0  0  0  0  0  0  0  0  0  0  0
    1.5000    2.5981    0.0000 C   0  0  0  0  0  0  0  0  0  0  0  0
    3.0000    2.5981    0.0000 O   0  0  0  0  0  0  0  0  0  0  0  0
    0.7500    1.2990    0.0000 N   0  0  0  0  0  0  0  0  0  0  0  0
    3.0000    5.1962    0.0000 O   0  0  0  0  0  1  0  0  0  0  0  0
  3  2  1  6
  3  4  1  0
  4  5  1  0
  5  6  1  0
  6  7  1  0
  7  8  1  1
  8  9  1  0
  9 10  1  0
 10 11  2  0
 11 12  1  0
 12 13  2  0
 12 14  1  0
 14 15  1  0
 15 16  1  0
 16 17  2  0
 17 18  1  0
 18 19  2  0
 19 20  1  0
 19 21  1  0
 21 22  2  0
 22 23  1  0
 11 24  1  0
 24 25  2  0
 24 26  1  0
 26 27  2  0
 27 28  1  0
 28 29  2  0
 28 30  1  0
 26 31  1  0
 30  3  1  0
 30  7  1  0
 27  9  1  0
 22 16  1  0
M  CHG  2   1   1  31  -1
M  END
$$$$
28699
     RDKit          2D

 15 13  0  0  0  0  0  0  0  0999 V2000
    0.0000    4.3481    0.0000 Na  0  0  0  0  0 15  0  0  0  0  0  0
   -1.2990    0.7500    0.0000 N   0  0  0  0  0  0  0  0  0  0  0  0
    0.0000   -0.0000    0.0000 C   0  0  0  0  0  0  0  0  0  0  0  0
    1.2990    0.7500    0.0000 C   0  0  0  0  0  0  0  0  0  0  0  0
    2.5981   -0.0000    0.0000 C   0  0  0  0  0  0  0  0  0  0  0  0
    3.8971    0.7500    0.0000 C   0  0  0  0  0  0  0  0  0  0  0  0
    5.1962    1.5000    0.0000 O   0  0  0  0  0  0  0  0  0  0  0  0
    3.1471    2.0490    0.0000 P   0  0  0  0  0  0  0  0  0  0  0  0
    2.3971    3.3481    0.0000 O   0  0  0  0  0  0  0  0  0  0  0  0
    4.4462    2.7990    0.0000 O   0  0  0  0  0  0  0  0  0  0  0  0
    1.7052    1.6357    0.0000 O   0  0  0  0  0  0  0  0  0  0  0  0
    4.6471   -0.5490    0.0000 P   0  0  0  0  0  0  0  0  0  0  0  0
    5.3971   -1.8481    0.0000 O   0  0  0  0  0  0  0  0  0  0  0  0
    3.3481   -1.2990    0.0000 O   0  0  0  0  0  0  0  0  0  0  0  0
    5.9462    0.2010    0.0000 O   0  0  0  0  0  1  0  0  0  0  0  0
  2  3  1  0
  3  4  1  0
  4  5  1  0
  5  6  1  0
  6  7  1  0
  6  8  1  0
  8  9  2  0
  8 10  1  0
  8 11  1  0
  6 12  1  0
 12 13  2  0
 12 14  1  0
 12 15  1  0
M  CHG  2   1   1  15  -1
M  END
$$$$
675070
     RDKit          2D

 24 24  0  0  0  0  0  0  0  0999 V2000
    0.0000    6.1962    0.0000 Na  0  0  0  0  0 15  0  0  0  0  0  0
    3.0000   -2.5981    0.0000 N   0  0  0  0  0  0  0  0  0  0  0  0
    3.7500   -1.2990    0.0000 C   0  0  0  0  0  0  0  0  0  0  0  0
    3.0000    0.0000    0.0000 C   0  0  0  0  0  0  0  0  0  0  0  0
    1.5000    0.0000    0.0000 C   0  0  0  0  0  0  0  0  0  0  0  0
    0.7500   -1.2990    0.0000 C   0  0  0  0  0  0  0  0  0  0  0  0
   -0.7500   -1.2990    0.0000 C   0  0  0  0  0  0  0  0  0  0  0  0
   -1.5000   -2.5981    0.0000 I   0  0  0  0  0  0  0  0  0  0  0  0
   -1.5000    0.0000    0.0000 C   0  0  0  0  0  0  0  0  0  0  0  0
   -3.0000    0.0000    0.0000 O   0  0  0  0  0  0  0  0  0  0  0  0
   -3.7500    1.2990    0.0000 C   0  0  0  0  0  0  0  0  0  0  0  0
   -3.0000    2.5981    0.0000 C   0  0  0  0  0  0  0  0  0  0  0  0
   -3.7500    3.8971    0.0000 C   0  0  0  0  0  0  0  0  0  0  0  0
   -5.2500    3.8971    0.0000 C   0  0  0  0  0  0  0  0  0  0  0  0
   -6.0000    5.1962    0.0000 O   0  0  0  0  0  0  0  0  0  0  0  0
   -6.0000    2.5981    0.0000 C   0  0  0  0  0  0  0  0  0  0  0  0
   -7.5000    2.5981    0.0000 I   0  0  0  0  0  0  0  0  0  0  0  0
   -5.2500    1.2990    0.0000 C   0  0  0  0  0  0  0  0  0  0  0  0
   -0.7500    1.2990    0.0000 C   0  0  0  0  0  0  0  0  0  0  0  0
   -1.5000    2.5981    0.0000 I   0  0  0  0  0  0  0  0  0  0  0  0
    0.7500    1.2990    0.0000 C   0  0  0  0  0  0  0  0  0  0  0  0
    5.2500   -1.2990    0.0000 C   0  0  0  0  0  0  0  0  0  0  0  0
    6.0000    0.0000    0.0000 O   0  0  0  0  0  0  0  0  0  0  0  0
    6.0000   -2.5981    0.0000 O   0  0  0  0  0  1  0  0  0  0  0  0
  3  2  1  1
  3  4  1  0
  4  5  1  0
  5  6  2  0
  6  7  1  0
  7  8  1  0
  7  9  2  0
  9 10  1  0
 10 11  1  0
 11 12  2  0
 12 13  1  0
 13 14  2  0
 14 15  1  0
 14 16  1  0
 16 17  1  0
 16 18  2  0
  9 19  1  0
 19 20  1  0
 19 21  2  0
  3 22  1  0
 22 23  2  0
 22 24  1  0
 21  5  1  0
 18 11  1  0
M  CHG  2   1   1  24  -1
M  END
$$$$
304381
     RDKit          2D

  5  3  0  0  0  0  0  0  0  0999 V2000
    0.0000    1.7500    0.0000 Na  0  0  0  0  0 15  0  0  0  0  0  0
   -1.2990    0.7500    0.0000 O   0  0  0  0  0  0  0  0  0  0  0  0
    0.0000    0.0000    0.0000 C   0  0  0  0  0  0  0  0  0  0  0  0
   -0.0000   -1.5000    0.0000 O   0  0  0  0  0  0  0  0  0  0  0  0
    1.2990    0.7500    0.0000 O   0  0  0  0  0  1  0  0  0  0  0  0
  2  3  1  0
  3  4  2  0
  3  5  1  0
M  CHG  2   1   1   5  -1
M  END
$$$$
494630
     RDKit          2D

 18 17  0  0  0  0  0  0  0  0999 V2000
    0.0000    2.2990    0.0000 Na  0  0  0  0  0 15  0  0  0  0  0  0
    4.5000   -2.5981    0.0000 O   0  0  0  0  0  0  0  0  0  0  0  0
    3.7500   -1.2990    0.0000 C   0  0  0  0  0  0  0  0  0  0  0  0
    3.0000   -0.0000    0.0000 C   0  0  0  0  0  0  0  0  0  0  0  0
    1.5000    0.0000    0.0000 C   0  0  0  0  0  0  0  0  0  0  0  0
    0.7500   -1.2990    0.0000 C   0  0  0  0  0  0  0  0  0  0  0  0
   -0.7500   -1.2990    0.0000 C   0  0  0  0  0  0  0  0  0  0  0  0
   -1.5000    0.0000    0.0000 C   0  0  0  0  0  0  0  0  0  0  0  0
   -0.7500    1.2990    0.0000 N   0  0  0  0  0  0  0  0  0  0  0  0
    0.7500    1.2990    0.0000 C   0  0  0  0  0  0  0  0  0  0  0  0
    2.4510   -2.0490    0.0000 P   0  0  0  0  0  0  0  0  0  0  0  0
    1.1519   -2.7990    0.0000 O   0  0  0  0  0  0  0  0  0  0  0  0
    3.2010   -3.3481    0.0000 O   0  0  0  0  0  0  0  0  0  0  0  0
    1.6069   -1.1751    0.0000 O   0  0  0  0  0  0  0  0  0  0  0  0
    5.0490   -0.5490    0.0000 P   0  0  0  0  0  0  0  0  0  0  0  0
    6.3481    0.2010    0.0000 O   0  0  0  0  0  0  0  0  0  0  0  0
    4.2990    0.7500    0.0000 O   0  0  0  0  0  0  0  0  0  0  0  0
    5.7990   -1.8481    0.0000 O   0  0  0  0  0  1  0  0  0  0  0  0
  2  3  1  0
  3  4  1  0
  4  5  1  0
  5  6  2  0
  6  7  1  0
  7  8  2  0
  8  9  1  0
  9 10  2  0
  3 11  1  0
 11 12  2  0
 11 13  1  0
 11 14  1  0
  3 15  1  0
 15 16  2  0
 15 17  1  0
 15 18  1  0
 10  5  1  0
M  CHG  2   1   1  18  -1
M  END
$$$$
674633
     RDKit          2D

  8  6  0  0  0  0  0  0  0  0999 V2000
    0.0000    3.2500    0.0000 Na  0  0  0  0  0 15  0  0  0  0  0  0
   -1.2990    0.7500    0.0000 O   0  0  0  0  0  0  0  0  0  0  0  0
    0.0000    0.0000    0.0000 C   0  0  0  0  0  0  0  0  0  0  0  0
    1.2990    0.7500    0.0000 C   0  0  0  0  0  0  0  0  0  0  0  0
    2.5981   -0.0000    0.0000 C   0  0  0  0  0  0  0  0  0  0  0  0
    3.8971    0.7500    0.0000 C   0  0  0  0  0  0  0  0  0  0  0  0
    3.8971    2.2500    0.0000 O   0  0  0  0  0  0  0  0  0  0  0  0
    5.1962   -0.0000    0.0000 O   0  0  0  0  0  1  0  0  0  0  0  0
  2  3  1  0
  3  4  1  0
  4  5  1  0
  5  6  1  0
  6  7  2  0
  6  8  1  0
M  CHG  2   1   1   8  -1
M  END
$$$$
597282
     RDKit          2D

 13 12  0  0  0  0  0  0  0  0999 V2000
    0.0000    2.6317    0.0000 Na  0  0  0  0  0 15  0  0  0  0  0  0
    5.0260   -1.2990    0.0000 O   0  0  0  0  0  0  0  0  0  0  0  0
    3.5260   -1.2990    0.0000 C   0  0  0  0  0  0  0  0  0  0  0  0
    2.7760    0.0000    0.0000 C   0  0  0  0  0  0  0  0  0  0  0  0
    3.5260    1.2990    0.0000 O   0  0  0  0  0  0  0  0  0  0  0  0
    1.2760    0.0000    0.0000 C   0  0  0  0  0  0  0  0  0  0  0  0
    0.3943    1.2135    0.0000 O   0  0  0  0  0  0  0  0  0  0  0  0
   -1.0323    0.7500    0.0000 C   0  0  0  0  0  0  0  0  0  0  0  0
   -2.2458    1.6317    0.0000 O   0  0  0  0  0  0  0  0  0  0  0  0
   -1.0323   -0.7500    0.0000 C   0  0  0  0  0  0  0  0  0  0  0  0
    0.3943   -1.2135    0.0000 C   0  0  0  0  0  0  0  0  0  0  0  0
    0.8578   -2.6401    0.0000 O   0  0  0  0  0  1  0  0  0  0  0  0
   -2.2458   -1.6317    0.0000 O   0  0  0  0  0  0  0  0  0  0  0  0
  2  3  1  0
  3  4  1  0
  4  5  1  1
  4  6  1  0
  6  7  1  6
  7  8  1  0
  8  9  2  0
  8 10  1  0
 10 11  2  0
 11 12  1  0
 10 13  1  0
 11  6  1  0
M  CHG  2   1   1  12  -1
M  END
$$$$
311242
     RDKit          2D

  6  4  0  0  0  0  0  0  0  0999 V2000
    3.5981    0.0000    0.0000 Na  0  0  0  0  0 15  0  0  0  0  0  0
    0.0000    0.0000    0.0000 O   0  0  0  0  0  0  0  0  0  0  0  0
    1.2990    0.7500    0.0000 P   0  0  0  0  0  0  0  0  0  0  0  0
    0.5490    2.0490    0.0000 O   0  0  0  0  0  0  0  0  0  0  0  0
    2.5981    1.5000    0.0000 O   0  0  0  0  0  0  0  0  0  0  0  0
    2.0490   -0.5490    0.0000 O   0  0  0  0  0  1  0  0  0  0  0  0
  2  3  1  0
  3  4  2  0
  3  5  1  0
  3  6  1  0
M  CHG  2   1   1   6  -1
M  END
$$$$
674740
     RDKit          2D

 11  9  0  0  0  0  0  0  0  0999 V2000
    0.0000    3.0490    0.0000 Na  0  0  0  0  0 15  0  0  0  0  0  0
   -3.8971   -0.7500    0.0000 O   0  0  0  0  0  0  0  0  0  0  0  0
   -2.5981    0.0000    0.0000 P   0  0  0  0  0  0  0  0  0  0  0  0
   -3.3481    1.2990    0.0000 O   0  0  0  0  0  0  0  0  0  0  0  0
   -1.8481   -1.2990    0.0000 O   0  0  0  0  0  1  0  0  0  0  0  0
   -1.2990    0.7500    0.0000 O   0  0  0  0  0  0  0  0  0  0  0  0
    0.0000    0.0000    0.0000 C   0  0  0  0  0  0  0  0  0  0  0  0
    1.2990    0.7500    0.0000 C   0  0  0  0  0  0  0  0  0  0  0  0
    2.5981    1.5000    0.0000 Cl  0  0  0  0  0  0  0  0  0  0  0  0
    2.0490   -0.5490    0.0000 Cl  0  0  0  0  0  0  0  0  0  0  0  0
    0.5490    2.0490    0.0000 Cl  0  0  0  0  0  0  0  0  0  0  0  0
  2  3  1  0
  3  4  2  0
  3  5  1  0
  3  6  1  0
  6  7  1  0
  7  8  1  0
  8  9  1  0
  8 10  1  0
  8 11  1  0
M  CHG  2   1   1   5  -1
M  END
$$$$
675034
     RDKit          2D

  2  0  0  0  0  0  0  0  0  0999 V2000
    0.0000    0.0000    0.0000 Na  0  0  0  0  0 15  0  0  0  0  0  0
    1.0000    0.0000    0.0000 I   0  0  0  0  0 15  0  0  0  0  0  0
M  CHG  2   1   1   2  -1
M  ISO  1   2 123
M  END
$$$$
1059668
     RDKit          2D

  2  0  0  0  0  0  0  0  0  0999 V2000
    0.0000    0.0000    0.0000 Na  0  0  0  0  0 15  0  0  0  0  0  0
    1.0000    0.0000    0.0000 I   0  0  0  0  0 15  0  0  0  0  0  0
M  CHG  2   1   1   2  -1
M  END
$$$$
674993
     RDKit          2D

 13 10  0  0  0  0  0  0  0  0999 V2000
    4.3481    0.0000    0.0000 Na  0  0  0  0  0 15  0  0  0  0  0  0
    5.3481    0.0000    0.0000 Na  0  0  0  0  0 15  0  0  0  0  0  0
    0.0000    0.0000    0.0000 C   0  0  0  0  0  0  0  0  0  0  0  0
    1.2990    0.7500    0.0000 C   0  0  0  0  0  0  0  0  0  0  0  0
    2.5981    1.5000    0.0000 O   0  0  0  0  0  0  0  0  0  0  0  0
    2.0490   -0.5490    0.0000 P   0  0  0  0  0  0  0  0  0  0  0  0
    2.7990   -1.8481    0.0000 O   0  0  0  0  0  0  0  0  0  0  0  0
    0.7500   -1.2990    0.0000 O   0  0  0  0  0  0  0  0  0  0  0  0
    3.3481    0.2010    0.0000 O   0  0  0  0  0  1  0  0  0  0  0  0
    0.5490    2.0490    0.0000 P   0  0  0  0  0  0  0  0  0  0  0  0
   -0.2010    3.3481    0.0000 O   0  0  0  0  0  0  0  0  0  0  0  0
   -0.7500    1.2990    0.0000 O   0  0  0  0  0  0  0  0  0  0  0  0
    1.8481    2.7990    0.0000 O   0  0  0  0  0  1  0  0  0  0  0  0
  3  4  1  0
  4  5  1  0
  4  6  1  0
  6  7  2  0
  6  8  1  0
  6  9  1  0
  4 10  1  0
 10 11  2  0
 10 12  1  0
 10 13  1  0
M  CHG  4   1   1   2   1   9  -1  13  -1
M  END
$$$$
1737244
     RDKit          2D

 35 35  0  0  0  0  0  0  0  0999 V2000
    0.0000    4.8971    0.0000 Na  0  0  0  0  0 15  0  0  0  0  0  0
    2.5000    0.0000    0.0000 Na  0  0  0  0  0 15  0  0  0  0  0  0
    1.5000   -5.1962    0.0000 C   0  0  0  0  0  0  0  0  0  0  0  0
    0.7500   -3.8971    0.0000 N   0  0  0  0  0  0  0  0  0  0  0  0
    1.5000   -2.5981    0.0000 C   0  0  0  0  0  0  0  0  0  0  0  0
    0.7500   -1.2990    0.0000 C   0  0  0  0  0  0  0  0  0  0  0  0
    1.5000    0.0000    0.0000 C   0  0  0  0  0  0  0  0  0  0  0  0
    0.7500    1.2990    0.0000 N   0  0  0  0  0  0  0  0  0  0  0  0
   -0.7500    1.2990    0.0000 C   0  0  0  0  0  0  0  0  0  0  0  0
   -1.5000    2.5981    0.0000 N   0  0  0  0  0  0  0  0  0  0  0  0
   -3.0000    2.5981    0.0000 C   0  0  0  0  0  0  0  0  0  0  0  0
   -3.7500    3.8971    0.0000 N   0  0  0  0  0  0  0  0  0  0  0  0
   -3.7500    1.2990    0.0000 N   0  0  0  0  0  0  0  0  0  0  0  0
   -3.0000    0.0000    0.0000 C   0  0  0  0  0  0  0  0  0  0  0  0
   -3.7500   -1.2990    0.0000 N   0  0  0  0  0  0  0  0  0  0  0  0
   -1.5000    0.0000    0.0000 C   0  0  0  0  0  0  0  0  0  0  0  0
   -0.7500   -1.2990    0.0000 N   0  0  0  0  0  0  0  0  0  0  0  0
   -0.7500   -3.8971    0.0000 C   0  0  0  0  0  0  0  0  0  0  0  0
   -1.5000   -2.5981    0.0000 C   0  0  0  0  0  0  0  0  0  0  0  0
   -3.0000   -2.5981    0.0000 C   0  0  0  0  0  0  0  0  0  0  0  0
   -3.7500   -3.8971    0.0000 C   0  0  0  0  0  0  0  0  0  0  0  0
   -3.0000   -5.1962    0.0000 C   0  0  0  0  0  0  0  0  0  0  0  0
   -1.5000   -5.1962    0.0000 C   0  0  0  0  0  0  0  0  0  0  0  0
   -5.2500   -3.8971    0.0000 C   0  0  0  0  0  0  0  0  0  0  0  0
   -6.0000   -2.5981    0.0000 O   0  0  0  0  0  0  0  0  0  0  0  0
   -6.0000   -5.1962    0.0000 N   0  0  0  0  0  0  0  0  0  0  0  0
   -7.5000   -5.1962    0.0000 C   0  0  0  0  0  0  0  0  0  0  0  0
   -8.2500   -6.4952    0.0000 C   0  0  0  0  0  0  0  0  0  0  0  0
   -9.7500   -6.4952    0.0000 C   0  0  0  0  0  0  0  0  0  0  0  0
  -10.5000   -7.7942    0.0000 C   0  0  0  0  0  0  0  0  0  0  0  0
   -9.7500   -9.0933    0.0000 O   0  0  0  0  0  0  0  0  0  0  0  0
  -12.0000   -7.7942    0.0000 O   0  0  0  0  0  1  0  0  0  0  0  0
   -8.2500   -3.8971    0.0000 C   0  0  0  0  0  0  0  0  0  0  0  0
   -7.5000   -2.5981    0.0000 O   0  0  0  0  0  0  0  0  0  0  0  0
   -9.7500   -3.8971    0.0000 O   0  0  0  0  0  1  0  0  0  0  0  0
  3  4  1  0
  4  5  1  0
  5  6  1  0
  6  7  2  0
  7  8  1  0
  8  9  2  0
  9 10  1  0
 10 11  2  0
 11 12  1  0
 11 13  1  0
 13 14  2  0
 14 15  1  0
 14 16  1  0
 16 17  2  0
  4 18  1  0
 18 19  2  0
 19 20  1  0
 20 21  2  0
 21 22  1  0
 22 23  2  0
 21 24  1  0
 24 25  2  0
 24 26  1  0
 26 27  1  0
 27 28  1  1
 28 29  1  0
 29 30  1  0
 30 31  2  0
 30 32  1  0
 27 33  1  0
 33 34  2  0
 33 35  1  0
 17  6  1  0
 16  9  1  0
 23 18  1  0
M  CHG  4   1   1   2   1  32  -1  35  -1
M  END
$$$$
674672
     RDKit          2D

 35 36  0  0  0  0  0  0  0  0999 V2000
    8.5000    0.0000    0.0000 Na  0  0  0  0  0 15  0  0  0  0  0  0
    9.5000    0.0000    0.0000 Na  0  0  0  0  0 15  0  0  0  0  0  0
   -4.4918   -5.3529    0.0000 C   0  0  0  0  0  0  0  0  0  0  0  0
   -3.0000   -5.1962    0.0000 C   0  0  0  0  0  0  0  0  0  0  0  0
   -3.7500   -3.8971    0.0000 C   0  0  0  0  0  0  0  0  0  0  0  0
   -3.0000   -2.5981    0.0000 C   0  0  0  0  0  0  0  0  0  0  0  0
   -1.5000   -2.5981    0.0000 C   0  0  0  0  0  0  0  0  0  0  0  0
   -0.7500   -3.8971    0.0000 C   0  0  0  0  0  0  0  0  0  0  0  0
    0.7500   -3.8971    0.0000 C   0  0  0  0  0  0  0  0  0  0  0  0
    1.5000   -2.5981    0.0000 C   0  0  0  0  0  0  0  0  0  0  0  0
    0.7500   -1.2990    0.0000 C   0  0  0  0  0  0  0  0  0  0  0  0
    1.5000    0.0000    0.0000 C   0  0  0  0  0  0  0  0  0  0  0  0
    0.7500    1.2990    0.0000 C   0  0  0  0  0  0  0  0  0  0  0  0
    1.5000    2.5981    0.0000 O   0  0  0  0  0  0  0  0  0  0  0  0
    3.0000    2.5981    0.0000 C   0  0  0  0  0  0  0  0  0  0  0  0
    3.7500    1.2990    0.0000 O   0  0  0  0  0  0  0  0  0  0  0  0
    3.7500    3.8971    0.0000 N   0  0  0  0  0  0  0  0  0  0  0  0
    5.2500    3.8971    0.0000 C   0  0  0  0  0  0  0  0  0  0  0  0
    6.0000    5.1962    0.0000 C   0  0  0  0  0  0  0  0  0  0  0  0
    7.5000    5.1962    0.0000 Cl  0  0  0  0  0  0  0  0  0  0  0  0
    3.0000    5.1962    0.0000 C   0  0  0  0  0  0  0  0  0  0  0  0
    3.7500    6.4952    0.0000 C   0  0  0  0  0  0  0  0  0  0  0  0
    3.0000    7.7942    0.0000 Cl  0  0  0  0  0  0  0  0  0  0  0  0
   -0.7500    1.2990    0.0000 C   0  0  0  0  0  0  0  0  0  0  0  0
   -1.5000    0.0000    0.0000 C   0  0  0  0  0  0  0  0  0  0  0  0
   -0.7500   -1.2990    0.0000 C   0  0  0  0  0  0  0  0  0  0  0  0
   -1.5000   -5.1962    0.0000 C   0  0  0  0  0  0  0  0  0  0  0  0
   -1.0365   -6.6227    0.0000 C   0  0  0  0  0  0  0  0  0  0  0  0
   -2.2500   -7.5044    0.0000 C   0  0  0  0  0  0  0  0  0  0  0  0
   -3.4635   -6.6227    0.0000 C   0  0  0  0  0  0  0  0  0  0  0  0
   -4.8901   -7.0863    0.0000 O   0  0  0  0  0  0  0  0  0  0  0  0
   -5.2020   -8.5535    0.0000 P   0  0  0  0  0  0  0  0  0  0  0  0
   -6.6692   -8.2416    0.0000 O   0  0  0  0  0  0  0  0  0  0  0  0
   -3.7348   -8.8654    0.0000 O   0  0  0  0  0  1  0  0  0  0  0  0
   -5.5138  -10.0207    0.0000 O   0  0  0  0  0  1  0  0  0  0  0  0
  4  3  1  6
  4  5  1  0
  5  6  1  0
  7  6  1  6
  7  8  1  0
  8  9  1  1
  9 10  1  0
 10 11  1  0
 11 12  2  0
 12 13  1  0
 13 14  1  0
 14 15  1  0
 15 16  2  0
 15 17  1  0
 17 18  1  0
 18 19  1  0
 19 20  1  0
 17 21  1  0
 21 22  1  0
 22 23  1  0
 13 24  2  0
 24 25  1  0
 25 26  2  0
  8 27  1  0
 27 28  1  6
 28 29  1  0
 29 30  1  0
 30 31  1  6
 31 32  1  0
 32 33  2  0
 32 34  1  0
 32 35  1  0
 27  4  1  0
 30  4  1  0
 26  7  1  0
 26 11  1  0
M  CHG  4   1   1   2   1  34  -1  35  -1
M  END
$$$$
674965
     RDKit          2D

 32 33  0  0  0  0  0  0  0  0999 V2000
    2.5000    0.0000    0.0000 Na  0  0  0  0  0 15  0  0  0  0  0  0
    3.5000    0.0000    0.0000 Na  0  0  0  0  0 15  0  0  0  0  0  0
   -4.4998   -5.1699    0.0000 C   0  0  0  0  0  0  0  0  0  0  0  0
   -3.0000   -5.1962    0.0000 C   0  0  0  0  0  0  0  0  0  0  0  0
   -3.7500   -3.8971    0.0000 C   0  0  0  0  0  0  0  0  0  0  0  0
   -3.0000   -2.5981    0.0000 C   0  0  0  0  0  0  0  0  0  0  0  0
   -3.7500   -1.2990    0.0000 O   0  0  0  0  0  0  0  0  0  0  0  0
   -1.5000   -2.5981    0.0000 C   0  0  0  0  0  0  0  0  0  0  0  0
   -0.7500   -3.8971    0.0000 C   0  0  0  0  0  0  0  0  0  0  0  0
    0.7500   -3.8971    0.0000 C   0  0  0  0  0  0  0  0  0  0  0  0
    1.5000   -2.5981    0.0000 C   0  0  0  0  0  0  0  0  0  0  0  0
    0.7500   -1.2990    0.0000 C   0  0  0  0  0  0  0  0  0  0  0  0
    1.5000    0.0000    0.0000 C   0  0  0  0  0  0  0  0  0  0  0  0
    0.7500    1.2990    0.0000 C   0  0  0  0  0  0  0  0  0  0  0  0
    1.5000    2.5981    0.0000 O   0  0  0  0  0  0  0  0  0  0  0  0
   -0.7500    1.2990    0.0000 C   0  0  0  0  0  0  0  0  0  0  0  0
   -1.5000    0.0000    0.0000 C   0  0  0  0  0  0  0  0  0  0  0  0
   -0.7500   -1.2990    0.0000 C   0  0  0  0  0  0  0  0  0  0  0  0
   -2.2500   -1.2990    0.0000 C   0  0  0  0  0  0  0  0  0  0  0  0
   -1.5000   -5.1962    0.0000 C   0  0  0  0  0  0  0  0  0  0  0  0
   -1.0365   -6.6227    0.0000 C   0  0  0  0  0  0  0  0  0  0  0  0
   -2.2500   -7.5044    0.0000 C   0  0  0  0  0  0  0  0  0  0  0  0
   -3.4635   -6.6227    0.0000 C   0  0  0  0  0  0  0  0  0  0  0  0
   -4.8980   -6.1842    0.0000 O   0  0  0  0  0  0  0  0  0  0  0  0
   -4.2135   -7.9218    0.0000 C   0  0  0  0  0  0  0  0  0  0  0  0
   -3.4635   -9.2208    0.0000 O   0  0  0  0  0  0  0  0  0  0  0  0
   -5.7135   -7.9218    0.0000 C   0  0  0  0  0  0  0  0  0  0  0  0
   -6.4635   -9.2208    0.0000 O   0  0  0  0  0  0  0  0  0  0  0  0
   -7.9635   -9.2208    0.0000 P   0  0  0  0  0  0  0  0  0  0  0  0
   -7.9635  -10.7208    0.0000 O   0  0  0  0  0  0  0  0  0  0  0  0
   -7.9635   -7.7208    0.0000 O   0  0  0  0  0  1  0  0  0  0  0  0
   -9.4635   -9.2208    0.0000 O   0  0  0  0  0  1  0  0  0  0  0  0
  4  3  1  6
  4  5  1  0
  5  6  1  0
  6  7  1  6
  8  6  1  6
  8  9  1  0
  9 10  1  1
 10 11  1  0
 11 12  1  0
 12 13  2  0
 13 14  1  0
 14 15  2  0
 14 16  1  0
 16 17  2  0
 17 18  1  0
 18 19  1  6
  9 20  1  0
 20 21  1  6
 21 22  1  0
 22 23  1  0
 23 24  1  1
 23 25  1  0
 25 26  2  0
 25 27  1  0
 27 28  1  0
 28 29  1  0
 29 30  2  0
 29 31  1  0
 29 32  1  0
 20  4  1  0
 23  4  1  0
 18  8  1  0
 18 12  1  0
M  CHG  4   1   1   2   1  31  -1  32  -1
M  END
$$$$
6480
     RDKit          2D

 36 37  0  0  0  0  0  0  0  0999 V2000
    0.0000    2.2990    0.0000 Na  0  0  0  0  0 15  0  0  0  0  0  0
    0.0000    3.2990    0.0000 Na  0  0  0  0  0 15  0  0  0  0  0  0
    3.0000   -5.1962    0.0000 O   0  0  0  0  0  0  0  0  0  0  0  0
    3.7500   -3.8971    0.0000 C   0  0  0  0  0  0  0  0  0  0  0  0
    3.0000   -2.5981    0.0000 C   0  0  0  0  0  0  0  0  0  0  0  0
    1.5000   -2.5981    0.0000 O   0  0  0  0  0  0  0  0  0  0  0  0
    0.7500   -1.2990    0.0000 C   0  0  0  0  0  0  0  0  0  0  0  0
    1.5000    0.0000    0.0000 C   0  0  0  0  0  0  0  0  0  0  0  0
    0.7500    1.2990    0.0000 C   0  0  0  0  0  0  0  0  0  0  0  0
   -0.7500    1.2990    0.0000 C   0  0  0  0  0  0  0  0  0  0  0  0
   -1.5000    0.0000    0.0000 C   0  0  0  0  0  0  0  0  0  0  0  0
   -3.0000    0.0000    0.0000 O   0  0  0  0  0  0  0  0  0  0  0  0
   -3.7500   -1.2990    0.0000 C   0  0  0  0  0  0  0  0  0  0  0  0
   -3.0000   -2.5981    0.0000 C   0  0  0  0  0  0  0  0  0  0  0  0
   -1.5000   -2.5981    0.0000 C   0  0  0  0  0  0  0  0  0  0  0  0
   -0.7500   -3.8971    0.0000 O   0  0  0  0  0  0  0  0  0  0  0  0
   -0.7500   -1.2990    0.0000 C   0  0  0  0  0  0  0  0  0  0  0  0
   -5.2500   -1.2990    0.0000 C   0  0  0  0  0  0  0  0  0  0  0  0
   -6.0000   -2.5981    0.0000 O   0  0  0  0  0  0  0  0  0  0  0  0
   -6.0000    0.0000    0.0000 O   0  0  0  0  0  1  0  0  0  0  0  0
    5.2500   -3.8971    0.0000 C   0  0  0  0  0  0  0  0  0  0  0  0
    6.0000   -5.1962    0.0000 O   0  0  0  0  0  0  0  0  0  0  0  0
    7.5000   -5.1962    0.0000 C   0  0  0  0  0  0  0  0  0  0  0  0
    8.2500   -3.8971    0.0000 C   0  0  0  0  0  0  0  0  0  0  0  0
    9.7500   -3.8971    0.0000 C   0  0  0  0  0  0  0  0  0  0  0  0
   10.5000   -5.1962    0.0000 C   0  0  0  0  0  0  0  0  0  0  0  0
    9.7500   -6.4952    0.0000 C   0  0  0  0  0  0  0  0  0  0  0  0
   10.5000   -7.7942    0.0000 O   0  0  0  0  0  0  0  0  0  0  0  0
    9.7500   -9.0933    0.0000 C   0  0  0  0  0  0  0  0  0  0  0  0
    8.2500   -9.0933    0.0000 C   0  0  0  0  0  0  0  0  0  0  0  0
    7.5000   -7.7942    0.0000 C   0  0  0  0  0  0  0  0  0  0  0  0
    6.0000   -7.7942    0.0000 O   0  0  0  0  0  0  0  0  0  0  0  0
    8.2500   -6.4952    0.0000 C   0  0  0  0  0  0  0  0  0  0  0  0
   10.5000  -10.3923    0.0000 C   0  0  0  0  0  0  0  0  0  0  0  0
   12.0000  -10.3923    0.0000 O   0  0  0  0  0  0  0  0  0  0  0  0
    9.7500  -11.6913    0.0000 O   0  0  0  0  0  1  0  0  0  0  0  0
  3  4  1  0
  4  5  1  0
  5  6  1  0
  6  7  1  0
  7  8  2  0
  8  9  1  0
  9 10  2  0
 10 11  1  0
 11 12  1  0
 12 13  1  0
 13 14  2  0
 14 15  1  0
 15 16  2  0
 15 17  1  0
 13 18  1  0
 18 19  2  0
 18 20  1  0
  4 21  1  0
 21 22  1  0
 22 23  1  0
 23 24  2  0
 24 25  1  0
 25 26  2  0
 26 27  1  0
 27 28  1  0
 28 29  1  0
 29 30  2  0
 30 31  1  0
 31 32  2  0
 31 33  1  0
 29 34  1  0
 34 35  2  0
 34 36  1  0
 17  7  1  0
 17 11  2  0
 33 23  1  0
 33 27  2  0
M  CHG  4   1   1   2   1  20  -1  36  -1
M  END
$$$$
674711
     RDKit          2D

 28 27  0  0  0  0  0  0  0  0999 V2000
    0.0000    6.1962    0.0000 Na  0  0  0  0  0 15  0  0  0  0  0  0
    0.0000    7.1962    0.0000 Na  0  0  0  0  0 15  0  0  0  0  0  0
    3.0000    0.0000    0.0000 O   0  0  0  0  0  0  0  0  0  0  0  0
    1.5000    0.0000    0.0000 C   0  0  0  0  0  0  0  0  0  0  0  0
    0.7500   -1.2990    0.0000 C   0  0  0  0  0  0  0  0  0  0  0  0
   -0.7500   -1.2990    0.0000 C   0  0  0  0  0  0  0  0  0  0  0  0
   -1.5000    0.0000    0.0000 C   0  0  0  0  0  0  0  0  0  0  0  0
   -0.7500    1.2990    0.0000 C   0  0  0  0  0  0  0  0  0  0  0  0
    0.7500    1.2990    0.0000 C   0  0  0  0  0  0  0  0  0  0  0  0
    1.5000    2.5981    0.0000 C   0  0  0  0  0  0  0  0  0  0  0  0
    0.7500    3.8971    0.0000 O   0  0  0  0  0  0  0  0  0  0  0  0
    3.0000    2.5981    0.0000 O   0  0  0  0  0  1  0  0  0  0  0  0
   -3.0000    0.0000    0.0000 N   0  0  0  0  0  0  0  0  0  0  0  0
   -3.7500    1.2990    0.0000 N   0  0  0  0  0  0  0  0  0  0  0  0
   -5.2500    1.2990    0.0000 C   0  0  0  0  0  0  0  0  0  0  0  0
   -6.0000    2.5981    0.0000 C   0  0  0  0  0  0  0  0  0  0  0  0
   -7.5000    2.5981    0.0000 C   0  0  0  0  0  0  0  0  0  0  0  0
   -8.2500    1.2990    0.0000 C   0  0  0  0  0  0  0  0  0  0  0  0
   -7.5000    0.0000    0.0000 C   0  0  0  0  0  0  0  0  0  0  0  0
   -6.0000    0.0000    0.0000 C   0  0  0  0  0  0  0  0  0  0  0  0
   -9.7500    1.2990    0.0000 C   0  0  0  0  0  0  0  0  0  0  0  0
  -10.5000    0.0000    0.0000 O   0  0  0  0  0  0  0  0  0  0  0  0
  -10.5000    2.5981    0.0000 N   0  0  0  0  0  0  0  0  0  0  0  0
  -12.0000    2.5981    0.0000 C   0  0  0  0  0  0  0  0  0  0  0  0
  -12.7500    3.8971    0.0000 C   0  0  0  0  0  0  0  0  0  0  0  0
  -14.2500    3.8971    0.0000 C   0  0  0  0  0  0  0  0  0  0  0  0
  -15.0000    2.5981    0.0000 O   0  0  0  0  0  0  0  0  0  0  0  0
  -15.0000    5.1962    0.0000 O   0  0  0  0  0  1  0  0  0  0  0  0
  3  4  1  0
  4  5  2  0
  5  6  1  0
  6  7  2  0
  7  8  1  0
  8  9  2  0
  9 10  1  0
 10 11  2  0
 10 12  1  0
  7 13  1  0
 13 14  2  3
 14 15  1  0
 15 16  2  0
 16 17  1  0
 17 18  2  0
 18 19  1  0
 19 20  2  0
 18 21  1  0
 21 22  2  0
 21 23  1  0
 23 24  1  0
 24 25  1  0
 25 26  1  0
 26 27  2  0
 26 28  1  0
  9  4  1  0
 20 15  1  0
M  CHG  4   1   1   2   1  12  -1  28  -1
M  END
$$$$
674964
     RDKit          2D

 24 23  0  0  0  0  0  0  0  0999 V2000
    0.0000    4.8971    0.0000 Na  0  0  0  0  0 15  0  0  0  0  0  0
    0.0000    5.8971    0.0000 Na  0  0  0  0  0 15  0  0  0  0  0  0
    3.0000    0.0000    0.0000 O   0  0  0  0  0  0  0  0  0  0  0  0
    1.5000    0.0000    0.0000 C   0  0  0  0  0  0  0  0  0  0  0  0
    0.7500   -1.2990    0.0000 C   0  0  0  0  0  0  0  0  0  0  0  0
   -0.7500   -1.2990    0.0000 C   0  0  0  0  0  0  0  0  0  0  0  0
   -1.5000    0.0000    0.0000 C   0  0  0  0  0  0  0  0  0  0  0  0
   -0.7500    1.2990    0.0000 C   0  0  0  0  0  0  0  0  0  0  0  0
    0.7500    1.2990    0.0000 C   0  0  0  0  0  0  0  0  0  0  0  0
    1.5000    2.5981    0.0000 C   0  0  0  0  0  0  0  0  0  0  0  0
    0.7500    3.8971    0.0000 O   0  0  0  0  0  0  0  0  0  0  0  0
    3.0000    2.5981    0.0000 O   0  0  0  0  0  1  0  0  0  0  0  0
   -3.0000    0.0000    0.0000 N   0  0  0  0  0  0  0  0  0  0  0  0
   -3.7500    1.2990    0.0000 N   0  0  0  0  0  0  0  0  0  0  0  0
   -5.2500    1.2990    0.0000 C   0  0  0  0  0  0  0  0  0  0  0  0
   -6.0000    2.5981    0.0000 C   0  0  0  0  0  0  0  0  0  0  0  0
   -7.5000    2.5981    0.0000 C   0  0  0  0  0  0  0  0  0  0  0  0
   -8.2500    1.2990    0.0000 C   0  0  0  0  0  0  0  0  0  0  0  0
   -9.7500    1.2990    0.0000 O   0  0  0  0  0  0  0  0  0  0  0  0
   -7.5000    0.0000    0.0000 C   0  0  0  0  0  0  0  0  0  0  0  0
   -6.0000    0.0000    0.0000 C   0  0  0  0  0  0  0  0  0  0  0  0
   -8.2500   -1.2990    0.0000 C   0  0  0  0  0  0  0  0  0  0  0  0
   -9.7500   -1.2990    0.0000 O   0  0  0  0  0  0  0  0  0  0  0  0
   -7.5000   -2.5981    0.0000 O   0  0  0  0  0  1  0  0  0  0  0  0
  3  4  1  0
  4  5  2  0
  5  6  1  0
  6  7  2  0
  7  8  1  0
  8  9  2  0
  9 10  1  0
 10 11  2  0
 10 12  1  0
  7 13  1  0
 13 14  2  3
 14 15  1  0
 15 16  2  0
 16 17  1  0
 17 18  2  0
 18 19  1  0
 18 20  1  0
 20 21  2  0
 20 22  1  0
 22 23  2  0
 22 24  1  0
  9  4  1  0
 21 15  1  0
M  CHG  4   1   1   2   1  12  -1  24  -1
M  END
$$$$
674399
     RDKit          2D

 19 17  0  0  0  0  0  0  0  0999 V2000
    0.0000    2.2990    0.0000 Na  0  0  0  0  0 15  0  0  0  0  0  0
    0.0000    3.2990    0.0000 Na  0  0  0  0  0 15  0  0  0  0  0  0
    5.2500    0.2010    0.0000 O   0  0  0  0  0  0  0  0  0  0  0  0
    5.2500   -1.2990    0.0000 P   0  0  0  0  0  0  0  0  0  0  0  0
    6.7500   -1.2990    0.0000 O   0  0  0  0  0  0  0  0  0  0  0  0
    5.2500   -2.7990    0.0000 O   0  0  0  0  0  1  0  0  0  0  0  0
    3.7500   -1.2990    0.0000 C   0  0  0  0  0  0  0  0  0  0  0  0
    3.0000    0.0000    0.0000 S   0  0  0  0  0  0  0  0  0  0  0  0
    1.5000    0.0000    0.0000 C   0  0  0  0  0  0  0  0  0  0  0  0
    0.7500   -1.2990    0.0000 C   0  0  0  0  0  0  0  0  0  0  0  0
   -0.7500   -1.2990    0.0000 C   0  0  0  0  0  0  0  0  0  0  0  0
   -1.5000    0.0000    0.0000 C   0  0  0  0  0  0  0  0  0  0  0  0
   -3.0000    0.0000    0.0000 Cl  0  0  0  0  0  0  0  0  0  0  0  0
   -0.7500    1.2990    0.0000 C   0  0  0  0  0  0  0  0  0  0  0  0
    0.7500    1.2990    0.0000 C   0  0  0  0  0  0  0  0  0  0  0  0
    3.0000   -2.5981    0.0000 P   0  0  0  0  0  0  0  0  0  0  0  0
    2.2500   -3.8971    0.0000 O   0  0  0  0  0  0  0  0  0  0  0  0
    1.7010   -1.8481    0.0000 O   0  0  0  0  0  0  0  0  0  0  0  0
    4.2990   -3.3481    0.0000 O   0  0  0  0  0  1  0  0  0  0  0  0
  3  4  1  0
  4  5  2  0
  4  6  1  0
  4  7  1  0
  7  8  1  0
  8  9  1  0
  9 10  2  0
 10 11  1  0
 11 12  2  0
 12 13  1  0
 12 14  1  0
 14 15  2  0
  7 16  1  0
 16 17  2  0
 16 18  1  0
 16 19  1  0
 15  9  1  0
M  CHG  4   1   1   2   1   6  -1  19  -1
M  END
$$$$
136282
     RDKit          2D

  7  4  0  0  0  0  0  0  0  0999 V2000
    3.5981    0.0000    0.0000 Na  0  0  0  0  0 15  0  0  0  0  0  0
    0.0000    3.0490    0.0000 Na  0  0  0  0  0 15  0  0  0  0  0  0
    0.0000    0.0000    0.0000 O   0  0  0  0  0  0  0  0  0  0  0  0
    1.2990    0.7500    0.0000 P   0  0  0  0  0  0  0  0  0  0  0  0
    2.0490   -0.5490    0.0000 O   0  0  0  0  0  0  0  0  0  0  0  0
    0.5490    2.0490    0.0000 O   0  0  0  0  0  1  0  0  0  0  0  0
    2.5981    1.5000    0.0000 O   0  0  0  0  0  1  0  0  0  0  0  0
  3  4  1  0
  4  5  2  0
  4  6  1  0
  4  7  1  0
M  CHG  4   1   1   2   1   6  -1   7  -1
M  END
$$$$
1379795
     RDKit          2D

  7  4  0  0  0  0  0  0  0  0999 V2000
    3.5981    0.0000    0.0000 Na  0  0  0  0  0 15  0  0  0  0  0  0
    0.0000    3.0490    0.0000 Na  0  0  0  0  0 15  0  0  0  0  0  0
    0.0000    0.0000    0.0000 O   0  0  0  0  0  0  0  0  0  0  0  0
    1.2990    0.7500    0.0000 P   0  0  0  0  0  5  0  0  0  0  0  0
    2.0490   -0.5490    0.0000 O   0  0  0  0  0  0  0  0  0  0  0  0
    0.5490    2.0490    0.0000 O   0  0  0  0  0  1  0  0  0  0  0  0
    2.5981    1.5000    0.0000 O   0  0  0  0  0  1  0  0  0  0  0  0
  3  4  1  0
  4  5  2  0
  4  6  1  0
  4  7  1  0
M  CHG  4   1   1   2   1   6  -1   7  -1
M  ISO  1   4  32
M  END
$$$$
674326
     RDKit          2D

 23 19  0  0  0  0  0  0  0  0999 V2000
    0.0000    5.5000    0.0000 Na  0  0  0  0  0 15  0  0  0  0  0  0
    0.0000    6.5000    0.0000 Na  0  0  0  0  0 15  0  0  0  0  0  0
    0.0000    7.5000    0.0000 Ca  0  0  0  0  0 15  0  0  0  0  0  0
    2.5981   -0.0000    0.0000 O   0  0  0  0  0  1  0  0  0  0  0  0
    1.2990    0.7500    0.0000 C   0  0  0  0  0  0  0  0  0  0  0  0
    1.2990    2.2500    0.0000 O   0  0  0  0  0  0  0  0  0  0  0  0
    0.0000    0.0000    0.0000 C   0  0  0  0  0  0  0  0  0  0  0  0
   -1.2990    0.7500    0.0000 N   0  0  0  0  0  0  0  0  0  0  0  0
   -2.5981    0.0000    0.0000 C   0  0  0  0  0  0  0  0  0  0  0  0
   -3.8971    0.7500    0.0000 C   0  0  0  0  0  0  0  0  0  0  0  0
   -5.1962    0.0000    0.0000 N   0  0  0  0  0  0  0  0  0  0  0  0
   -6.4952    0.7500    0.0000 C   0  0  0  0  0  0  0  0  0  0  0  0
   -7.7942    0.0000    0.0000 C   0  0  0  0  0  0  0  0  0  0  0  0
   -7.7942   -1.5000    0.0000 O   0  0  0  0  0  0  0  0  0  0  0  0
   -9.0933    0.7500    0.0000 O   0  0  0  0  0  1  0  0  0  0  0  0
   -5.1962   -1.5000    0.0000 C   0  0  0  0  0  0  0  0  0  0  0  0
   -3.8971   -2.2500    0.0000 C   0  0  0  0  0  0  0  0  0  0  0  0
   -2.5981   -1.5000    0.0000 O   0  0  0  0  0  0  0  0  0  0  0  0
   -3.8971   -3.7500    0.0000 O   0  0  0  0  0  1  0  0  0  0  0  0
   -1.2990    2.2500    0.0000 C   0  0  0  0  0  0  0  0  0  0  0  0
   -2.5981    3.0000    0.0000 C   0  0  0  0  0  0  0  0  0  0  0  0
   -3.8971    2.2500    0.0000 O   0  0  0  0  0  0  0  0  0  0  0  0
   -2.5981    4.5000    0.0000 O   0  0  0  0  0  1  0  0  0  0  0  0
  4  5  1  0
  5  6  2  0
  5  7  1  0
  7  8  1  0
  8  9  1  0
  9 10  1  0
 10 11  1  0
 11 12  1  0
 12 13  1  0
 13 14  2  0
 13 15  1  0
 11 16  1  0
 16 17  1  0
 17 18  2  0
 17 19  1  0
  8 20  1  0
 20 21  1  0
 21 22  2  0
 21 23  1  0
M  CHG  7   1   1   2   1   3   2   4  -1  15  -1  19  -1  23  -1
M  END
$$$$
1078532
     RDKit          2D

 31 31  0  0  0  0  0  0  0  0999 V2000
    6.0490    0.0000    0.0000 Na  0  0  0  0  0 15  0  0  0  0  0  0
    0.0000    8.7942    0.0000 Na  0  0  0  0  0 15  0  0  0  0  0  0
    4.5000   -2.5981    0.0000 O   0  0  0  0  0  1  0  0  0  0  0  0
    3.7500   -1.2990    0.0000 S   0  0  0  0  0  0  0  0  0  0  0  0
    2.4510   -2.0490    0.0000 O   0  0  0  0  0  0  0  0  0  0  0  0
    5.0490   -0.5490    0.0000 O   0  0  0  0  0  0  0  0  0  0  0  0
    3.0000    0.0000    0.0000 O   0  0  0  0  0  0  0  0  0  0  0  0
    1.5000    0.0000    0.0000 C   0  0  0  0  0  0  0  0  0  0  0  0
    0.7500   -1.2990    0.0000 C   0  0  0  0  0  0  0  0  0  0  0  0
   -0.7500   -1.2990    0.0000 C   0  0  0  0  0  0  0  0  0  0  0  0
   -1.5000    0.0000    0.0000 C   0  0  0  0  0  0  0  0  0  0  0  0
   -0.7500    1.2990    0.0000 C   0  0  0  0  0  0  0  0  0  0  0  0
    0.7500    1.2990    0.0000 C   0  0  0  0  0  0  0  0  0  0  0  0
   -3.0000    0.0000    0.0000 C   0  0  0  0  0  0  0  0  0  0  0  0
   -3.7500    1.2990    0.0000 C   0  0  0  0  0  0  0  0  0  0  0  0
   -3.0000    2.5981    0.0000 C   0  0  0  0  0  0  0  0  0  0  0  0
   -3.7500    3.8971    0.0000 C   0  0  0  0  0  0  0  0  0  0  0  0
   -5.2500    3.8971    0.0000 C   0  0  0  0  0  0  0  0  0  0  0  0
   -6.0000    5.1962    0.0000 O   0  0  0  0  0  0  0  0  0  0  0  0
   -5.2500    6.4952    0.0000 S   0  0  0  0  0  0  0  0  0  0  0  0
   -3.9510    5.7452    0.0000 O   0  0  0  0  0  0  0  0  0  0  0  0
   -6.5490    7.2452    0.0000 O   0  0  0  0  0  0  0  0  0  0  0  0
   -4.5000    7.7942    0.0000 O   0  0  0  0  0  1  0  0  0  0  0  0
   -6.0000    2.5981    0.0000 C   0  0  0  0  0  0  0  0  0  0  0  0
   -5.2500    1.2990    0.0000 C   0  0  0  0  0  0  0  0  0  0  0  0
   -3.7500   -1.2990    0.0000 C   0  0  0  0  0  0  0  0  0  0  0  0
   -5.2500   -1.2990    0.0000 C   0  0  0  0  0  0  0  0  0  0  0  0
   -6.0000   -2.5981    0.0000 C   0  0  0  0  0  0  0  0  0  0  0  0
   -5.2500   -3.8971    0.0000 C   0  0  0  0  0  0  0  0  0  0  0  0
   -3.7500   -3.8971    0.0000 C   0  0  0  0  0  0  0  0  0  0  0  0
   -3.0000   -2.5981    0.0000 N   0  0  0  0  0  0  0  0  0  0  0  0
  3  4  1  0
  4  5  2  0
  4  6  2  0
  4  7  1  0
  7  8  1  0
  8  9  2  0
  9 10  1  0
 10 11  2  0
 11 12  1  0
 12 13  2  0
 11 14  1  0
 14 15  1  0
 15 16  2  0
 16 17  1  0
 17 18  2  0
 18 19  1  0
 19 20  1  0
 20 21  2  0
 20 22  2  0
 20 23  1  0
 18 24  1  0
 24 25  2  0
 14 26  1  0
 26 27  2  0
 27 28  1  0
 28 29  2  0
 29 30  1  0
 30 31  2  0
 13  8  1  0
 25 15  1  0
 31 26  1  0
M  CHG  4   1   1   2   1   3  -1  23  -1
M  END
$$$$
394539
     RDKit          2D

  7  4  0  0  0  0  0  0  0  0999 V2000
    3.5981    0.0000    0.0000 Na  0  0  0  0  0 15  0  0  0  0  0  0
    0.0000    3.0490    0.0000 Na  0  0  0  0  0 15  0  0  0  0  0  0
    0.0000    0.0000    0.0000 O   0  0  0  0  0  1  0  0  0  0  0  0
    1.2990    0.7500    0.0000 S   0  0  0  0  0  0  0  0  0  0  0  0
    2.0490   -0.5490    0.0000 O   0  0  0  0  0  0  0  0  0  0  0  0
    0.5490    2.0490    0.0000 O   0  0  0  0  0  0  0  0  0  0  0  0
    2.5981    1.5000    0.0000 O   0  0  0  0  0  1  0  0  0  0  0  0
  3  4  1  0
  4  5  2  0
  4  6  2  0
  4  7  1  0
M  CHG  4   1   1   2   1   3  -1   7  -1
M  END
$$$$
674531
     RDKit          2D

 27 26  0  0  0  0  0  0  0  0999 V2000
    0.0000    3.5981    0.0000 Na  0  0  0  0  0 15  0  0  0  0  0  0
    0.0000    4.5981    0.0000 Na  0  0  0  0  0 15  0  0  0  0  0  0
    6.0000   -2.5981    0.0000 O   0  0  0  0  0  1  0  0  0  0  0  0
    5.2500   -1.2990    0.0000 S   0  0  0  0  0  0  0  0  0  0  0  0
    6.0000    0.0000    0.0000 O   0  0  0  0  0  0  0  0  0  0  0  0
    3.7500   -1.2990    0.0000 C   0  0  0  0  0  0  0  0  0  0  0  0
    3.0000    0.0000    0.0000 N   0  0  0  0  0  0  0  0  0  0  0  0
    1.5000    0.0000    0.0000 C   0  0  0  0  0  0  0  0  0  0  0  0
    0.7500   -1.2990    0.0000 C   0  0  0  0  0  0  0  0  0  0  0  0
   -0.7500   -1.2990    0.0000 C   0  0  0  0  0  0  0  0  0  0  0  0
   -1.5000    0.0000    0.0000 C   0  0  0  0  0  0  0  0  0  0  0  0
   -0.7500    1.2990    0.0000 C   0  0  0  0  0  0  0  0  0  0  0  0
    0.7500    1.2990    0.0000 C   0  0  0  0  0  0  0  0  0  0  0  0
   -3.0000    0.0000    0.0000 S   0  0  0  0  0  0  0  0  0  0  0  0
   -3.0000    1.5000    0.0000 O   0  0  0  0  0  0  0  0  0  0  0  0
   -3.0000   -1.5000    0.0000 O   0  0  0  0  0  0  0  0  0  0  0  0
   -4.5000    0.0000    0.0000 C   0  0  0  0  0  0  0  0  0  0  0  0
   -5.2500    1.2990    0.0000 C   0  0  0  0  0  0  0  0  0  0  0  0
   -6.7500    1.2990    0.0000 C   0  0  0  0  0  0  0  0  0  0  0  0
   -7.5000    0.0000    0.0000 C   0  0  0  0  0  0  0  0  0  0  0  0
   -9.0000    0.0000    0.0000 N   0  0  0  0  0  0  0  0  0  0  0  0
   -9.7500    1.2990    0.0000 C   0  0  0  0  0  0  0  0  0  0  0  0
  -11.2500    1.2990    0.0000 S   0  0  0  0  0  0  0  0  0  0  0  0
  -12.0000    0.0000    0.0000 O   0  0  0  0  0  0  0  0  0  0  0  0
  -12.0000    2.5981    0.0000 O   0  0  0  0  0  1  0  0  0  0  0  0
   -6.7500   -1.2990    0.0000 C   0  0  0  0  0  0  0  0  0  0  0  0
   -5.2500   -1.2990    0.0000 C   0  0  0  0  0  0  0  0  0  0  0  0
  3  4  1  0
  4  5  2  0
  4  6  1  0
  6  7  1  0
  7  8  1  0
  8  9  2  0
  9 10  1  0
 10 11  2  0
 11 12  1  0
 12 13  2  0
 11 14  1  0
 14 15  2  0
 14 16  2  0
 14 17  1  0
 17 18  2  0
 18 19  1  0
 19 20  2  0
 20 21  1  0
 21 22  1  0
 22 23  1  0
 23 24  2  0
 23 25  1  0
 20 26  1  0
 26 27  2  0
 13  8  1  0
 27 17  1  0
M  CHG  4   1   1   2   1   3  -1  25  -1
M  END
$$$$
304398
     RDKit          2D

 10  9  0  0  0  0  0  0  0  0999 V2000
    0.0000    2.2990    0.0000 Na  0  0  0  0  0 15  0  0  0  0  0  0
    3.7500   -1.2990    0.0000 O   0  0  0  0  0  1  0  0  0  0  0  0
    3.0000    0.0000    0.0000 C   0  0  0  0  0  0  0  0  0  0  0  0
    3.7500    1.2990    0.0000 O   0  0  0  0  0  0  0  0  0  0  0  0
    1.5000    0.0000    0.0000 C   0  0  0  0  0  0  0  0  0  0  0  0
    0.7500   -1.2990    0.0000 C   0  0  0  0  0  0  0  0  0  0  0  0
   -0.7500   -1.2990    0.0000 C   0  0  0  0  0  0  0  0  0  0  0  0
   -1.5000    0.0000    0.0000 C   0  0  0  0  0  0  0  0  0  0  0  0
   -0.7500    1.2990    0.0000 C   0  0  0  0  0  0  0  0  0  0  0  0
    0.7500    1.2990    0.0000 C   0  0  0  0  0  0  0  0  0  0  0  0
  2  3  1  0
  3  4  2  0
  3  5  1  0
  5  6  2  0
  6  7  1  0
  7  8  2  0
  8  9  1  0
  9 10  2  0
 10  5  1  0
M  CHG  2   1   1   2  -1
M  END
$$$$
674309
     RDKit          2D

 11 10  0  0  0  0  0  0  0  0999 V2000
    0.0000    2.2990    0.0000 Na  0  0  0  0  0 15  0  0  0  0  0  0
    5.2500   -1.2990    0.0000 O   0  0  0  0  0  1  0  0  0  0  0  0
    3.7500   -1.2990    0.0000 C   0  0  0  0  0  0  0  0  0  0  0  0
    3.0000   -2.5981    0.0000 O   0  0  0  0  0  0  0  0  0  0  0  0
    3.0000    0.0000    0.0000 C   0  0  0  0  0  0  0  0  0  0  0  0
    1.5000    0.0000    0.0000 C   0  0  0  0  0  0  0  0  0  0  0  0
    0.7500   -1.2990    0.0000 C   0  0  0  0  0  0  0  0  0  0  0  0
   -0.7500   -1.2990    0.0000 C   0  0  0  0  0  0  0  0  0  0  0  0
   -1.5000    0.0000    0.0000 C   0  0  0  0  0  0  0  0  0  0  0  0
   -0.7500    1.2990    0.0000 C   0  0  0  0  0  0  0  0  0  0  0  0
    0.7500    1.2990    0.0000 C   0  0  0  0  0  0  0  0  0  0  0  0
  2  3  1  0
  3  4  2  0
  3  5  1  0
  5  6  1  0
  6  7  2  0
  7  8  1  0
  8  9  2  0
  9 10  1  0
 10 11  2  0
 11  6  1  0
M  CHG  2   1   1   2  -1
M  END
$$$$
123693
     RDKit          2D

 20 20  0  0  0  0  0  0  0  0999 V2000
    6.2500    0.0000    0.0000 Na  0  0  0  0  0 15  0  0  0  0  0  0
    5.2500   -1.2990    0.0000 O   0  0  0  0  0  1  0  0  0  0  0  0
    3.7500   -1.2990    0.0000 C   0  0  0  0  0  0  0  0  0  0  0  0
    3.0000   -2.5981    0.0000 O   0  0  0  0  0  0  0  0  0  0  0  0
    3.0000    0.0000    0.0000 C   0  0  0  0  0  0  0  0  0  0  0  0
    1.5000    0.0000    0.0000 C   0  0  0  0  0  0  0  0  0  0  0  0
    0.7500   -1.2990    0.0000 C   0  0  0  0  0  0  0  0  0  0  0  0
   -0.7500   -1.2990    0.0000 C   0  0  0  0  0  0  0  0  0  0  0  0
   -1.5000    0.0000    0.0000 C   0  0  0  0  0  0  0  0  0  0  0  0
   -0.7500    1.2990    0.0000 C   0  0  0  0  0  0  0  0  0  0  0  0
    0.7500    1.2990    0.0000 C   0  0  0  0  0  0  0  0  0  0  0  0
    1.5000    2.5981    0.0000 N   0  0  0  0  0  0  0  0  0  0  0  0
    0.7500    3.8971    0.0000 C   0  0  0  0  0  0  0  0  0  0  0  0
    1.5000    5.1962    0.0000 C   0  0  0  0  0  0  0  0  0  0  0  0
    3.0000    5.1962    0.0000 Cl  0  0  0  0  0  0  0  0  0  0  0  0
    0.7500    6.4952    0.0000 C   0  0  0  0  0  0  0  0  0  0  0  0
   -0.7500    6.4952    0.0000 C   0  0  0  0  0  0  0  0  0  0  0  0
   -1.5000    5.1962    0.0000 C   0  0  0  0  0  0  0  0  0  0  0  0
   -0.7500    3.8971    0.0000 C   0  0  0  0  0  0  0  0  0  0  0  0
   -1.5000    2.5981    0.0000 Cl  0  0  0  0  0  0  0  0  0  0  0  0
  2  3  1  0
  3  4  2  0
  3  5  1  0
  5  6  1  0
  6  7  2  0
  7  8  1  0
  8  9  2  0
  9 10  1  0
 10 11  2  0
 11 12  1  0
 12 13  1  0
 13 14  2  0
 14 15  1  0
 14 16  1  0
 16 17  2  0
 17 18  1  0
 18 19  2  0
 19 20  1  0
 11  6  1  0
 19 13  1  0
M  CHG  2   1   1   2  -1
M  END
$$$$
575670
     RDKit          2D

 13 12  0  0  0  0  0  0  0  0999 V2000
    0.0000    2.2990    0.0000 Na  0  0  0  0  0 15  0  0  0  0  0  0
    7.5000   -2.5981    0.0000 O   0  0  0  0  0  1  0  0  0  0  0  0
    6.0000   -2.5981    0.0000 C   0  0  0  0  0  0  0  0  0  0  0  0
    5.2500   -3.8971    0.0000 O   0  0  0  0  0  0  0  0  0  0  0  0
    5.2500   -1.2990    0.0000 C   0  0  0  0  0  0  0  0  0  0  0  0
    3.7500   -1.2990    0.0000 C   0  0  0  0  0  0  0  0  0  0  0  0
    3.0000    0.0000    0.0000 C   0  0  0  0  0  0  0  0  0  0  0  0
    1.5000    0.0000    0.0000 C   0  0  0  0  0  0  0  0  0  0  0  0
    0.7500   -1.2990    0.0000 C   0  0  0  0  0  0  0  0  0  0  0  0
   -0.7500   -1.2990    0.0000 C   0  0  0  0  0  0  0  0  0  0  0  0
   -1.5000    0.0000    0.0000 C   0  0  0  0  0  0  0  0  0  0  0  0
   -0.7500    1.2990    0.0000 C   0  0  0  0  0  0  0  0  0  0  0  0
    0.7500    1.2990    0.0000 C   0  0  0  0  0  0  0  0  0  0  0  0
  2  3  1  0
  3  4  2  0
  3  5  1  0
  5  6  1  0
  6  7  1  0
  7  8  1  0
  8  9  2  0
  9 10  1  0
 10 11  2  0
 11 12  1  0
 12 13  2  0
 13  8  1  0
M  CHG  2   1   1   2  -1
M  END
$$$$
458912
     RDKit          2D

 20 21  0  0  0  0  0  0  0  0999 V2000
    6.2974    0.0000    0.0000 Na  0  0  0  0  0 15  0  0  0  0  0  0
   -0.8282   -5.7037    0.0000 O   0  0  0  0  0  1  0  0  0  0  0  0
    0.2865   -4.7000    0.0000 C   0  0  0  0  0  0  0  0  0  0  0  0
    1.7537   -5.0118    0.0000 N   0  0  0  0  0  0  0  0  0  0  0  0
    2.5037   -3.7128    0.0000 C   0  0  0  0  0  0  0  0  0  0  0  0
    3.9955   -3.5560    0.0000 O   0  0  0  0  0  0  0  0  0  0  0  0
    1.5000   -2.5981    0.0000 C   0  0  0  0  0  0  0  0  0  0  0  0
    0.1297   -3.2082    0.0000 N   0  0  0  0  0  0  0  0  0  0  0  0
    0.7500   -1.2990    0.0000 C   0  0  0  0  0  0  0  0  0  0  0  0
    1.5000    0.0000    0.0000 C   0  0  0  0  0  0  0  0  0  0  0  0
    0.7500    1.2990    0.0000 C   0  0  0  0  0  0  0  0  0  0  0  0
   -0.7500    1.2990    0.0000 C   0  0  0  0  0  0  0  0  0  0  0  0
   -1.5000    0.0000    0.0000 C   0  0  0  0  0  0  0  0  0  0  0  0
   -0.7500   -1.2990    0.0000 C   0  0  0  0  0  0  0  0  0  0  0  0
    2.7135   -1.7164    0.0000 C   0  0  0  0  0  0  0  0  0  0  0  0
    4.0838   -2.3265    0.0000 C   0  0  0  0  0  0  0  0  0  0  0  0
    5.2974   -1.4448    0.0000 C   0  0  0  0  0  0  0  0  0  0  0  0
    5.1406    0.0470    0.0000 C   0  0  0  0  0  0  0  0  0  0  0  0
    3.7703    0.6571    0.0000 C   0  0  0  0  0  0  0  0  0  0  0  0
    2.5567   -0.2246    0.0000 C   0  0  0  0  0  0  0  0  0  0  0  0
  2  3  1  0
  3  4  2  0
  4  5  1  0
  5  6  2  0
  5  7  1  0
  7  8  1  0
  7  9  1  0
  9 10  2  0
 10 11  1  0
 11 12  2  0
 12 13  1  0
 13 14  2  0
  7 15  1  0
 15 16  2  0
 16 17  1  0
 17 18  2  0
 18 19  1  0
 19 20  2  0
  8  3  1  0
 14  9  1  0
 20 15  1  0
M  CHG  2   1   1   2  -1
M  END
$$$$
96595
     RDKit          2D

  8  6  0  0  0  0  0  0  0  0999 V2000
    0.0000    3.0490    0.0000 Na  0  0  0  0  0 15  0  0  0  0  0  0
   -2.5981    1.5000    0.0000 O   0  0  0  0  0  1  0  0  0  0  0  0
   -1.2990    0.7500    0.0000 S   0  0  0  0  0  0  0  0  0  0  0  0
   -2.0490   -0.5490    0.0000 O   0  0  0  0  0  0  0  0  0  0  0  0
   -0.5490    2.0490    0.0000 O   0  0  0  0  0  0  0  0  0  0  0  0
    0.0000    0.0000    0.0000 C   0  0  0  0  0  0  0  0  0  0  0  0
    1.2990    0.7500    0.0000 C   0  0  0  0  0  0  0  0  0  0  0  0
    2.5981   -0.0000    0.0000 S   0  0  0  0  0  0  0  0  0  0  0  0
  2  3  1  0
  3  4  2  0
  3  5  2  0
  3  6  1  0
  6  7  1  0
  7  8  1  0
M  CHG  2   1   1   2  -1
M  END
$$$$
84644
     RDKit          2D

 24 25  0  0  0  0  0  0  0  0999 V2000
    0.0000    2.2990    0.0000 Na  0  0  0  0  0 15  0  0  0  0  0  0
    3.7500   -1.2990    0.0000 O   0  0  0  0  0  1  0  0  0  0  0  0
    3.0000    0.0000    0.0000 N   0  0  0  0  0  4  0  0  0  0  0  0
    3.7500    1.2990    0.0000 O   0  0  0  0  0  0  0  0  0  0  0  0
    1.5000    0.0000    0.0000 C   0  0  0  0  0  0  0  0  0  0  0  0
    0.7500   -1.2990    0.0000 C   0  0  0  0  0  0  0  0  0  0  0  0
   -0.7500   -1.2990    0.0000 C   0  0  0  0  0  0  0  0  0  0  0  0
   -1.5000    0.0000    0.0000 C   0  0  0  0  0  0  0  0  0  0  0  0
   -0.7500    1.2990    0.0000 C   0  0  0  0  0  0  0  0  0  0  0  0
    0.7500    1.2990    0.0000 C   0  0  0  0  0  0  0  0  0  0  0  0
   -3.0000    0.0000    0.0000 C   0  0  0  0  0  0  0  0  0  0  0  0
   -3.8817   -1.2135    0.0000 O   0  0  0  0  0  0  0  0  0  0  0  0
   -5.3083   -0.7500    0.0000 C   0  0  0  0  0  0  0  0  0  0  0  0
   -6.5218   -1.6317    0.0000 C   0  0  0  0  0  0  0  0  0  0  0  0
   -7.8921   -1.0216    0.0000 N   0  0  0  0  0  0  0  0  0  0  0  0
   -9.1056   -1.9033    0.0000 N   0  0  0  0  0  0  0  0  0  0  0  0
   -9.1056   -3.4033    0.0000 C   0  0  0  0  0  0  0  0  0  0  0  0
  -10.5322   -3.8668    0.0000 C   0  0  0  0  0  0  0  0  0  0  0  0
  -10.9957   -5.2934    0.0000 O   0  0  0  0  0  0  0  0  0  0  0  0
  -11.4139   -2.6533    0.0000 N   0  0  0  0  0  2  0  0  0  0  0  0
  -10.5322   -1.4397    0.0000 C   0  0  0  0  0  0  0  0  0  0  0  0
  -10.9957   -0.0131    0.0000 O   0  0  0  0  0  0  0  0  0  0  0  0
   -5.3083    0.7500    0.0000 C   0  0  0  0  0  0  0  0  0  0  0  0
   -3.8817    1.2135    0.0000 C   0  0  0  0  0  0  0  0  0  0  0  0
  2  3  1  0
  3  4  2  0
  3  5  1  0
  5  6  2  0
  6  7  1  0
  7  8  2  0
  8  9  1  0
  9 10  2  0
  8 11  1  0
 11 12  1  0
 12 13  1  0
 13 14  1  0
 14 15  2  0
 15 16  1  0
 16 17  1  0
 17 18  1  0
 18 19  2  0
 18 20  1  0
 20 21  1  0
 21 22  2  0
 13 23  2  0
 23 24  1  0
 10  5  1  0
 24 11  2  0
 21 16  1  0
M  CHG  4   1   1   2  -1   3   1  20  -1
M  END
$$$$
675750
     RDKit          2D

 13 11  0  0  0  0  0  0  0  0999 V2000
    3.8971    2.5000    0.0000 N   0  0  0  0  0  4  0  0  0  0  0  0
    2.5981    1.7500    0.0000 C   0  0  0  0  0  0  0  0  0  0  0  0
    1.2990    2.5000    0.0000 C   0  0  0  0  0  0  0  0  0  0  0  0
    0.0000    1.7500    0.0000 C   0  0  0  0  0  0  0  0  0  0  0  0
    4.1160    0.7500    0.0000 O   0  0  0  0  0  0  0  0  0  0  0  0
    5.4151    0.0000    0.0000 C   0  0  0  0  0  0  0  0  0  0  0  0
    5.4151   -1.5000    0.0000 O   0  0  0  0  0  0  0  0  0  0  0  0
    6.7141    0.7500    0.0000 O   0  0  0  0  0  1  0  0  0  0  0  0
    3.1160   -1.2990    0.0000 Cl  0  0  0  0  0  0  0  0  0  0  0  0
    2.3660    0.0000    0.0000 C   0  0  0  0  0  0  0  0  0  0  0  0
    0.8660    0.0000    0.0000 C   0  0  0  0  0  0  0  0  0  0  0  0
   -0.4330    0.7500    0.0000 C   0  0  0  0  0  0  0  0  0  0  0  0
   -0.4330   -0.7500    0.0000 O   0  0  0  0  0  0  0  0  0  0  0  0
  1  2  1  0
  2  3  1  0
  3  4  2  0
  5  6  1  0
  6  7  2  0
  6  8  1  0
  9 10  1  0
 10 11  1  0
 11 12  1  0
 12 13  1  0
 13 11  1  0
M  CHG  2   1   1   8  -1
M  END
$$$$
281549
     RDKit          2D

 23 24  0  0  0  0  0  0  0  0999 V2000
    3.7500   -1.2990    0.0000 O   0  0  0  0  0  1  0  0  0  0  0  0
    3.0000    0.0000    0.0000 N   0  0  0  0  0  4  0  0  0  0  0  0
    3.7500    1.2990    0.0000 O   0  0  0  0  0  0  0  0  0  0  0  0
    1.5000    0.0000    0.0000 C   0  0  0  0  0  0  0  0  0  0  0  0
    0.7500   -1.2990    0.0000 C   0  0  0  0  0  0  0  0  0  0  0  0
   -0.7500   -1.2990    0.0000 C   0  0  0  0  0  0  0  0  0  0  0  0
   -1.5000    0.0000    0.0000 C   0  0  0  0  0  0  0  0  0  0  0  0
   -0.7500    1.2990    0.0000 C   0  0  0  0  0  0  0  0  0  0  0  0
    0.7500    1.2990    0.0000 C   0  0  0  0  0  0  0  0  0  0  0  0
    1.5000    2.5981    0.0000 C   0  0  0  0  0  0  0  0  0  0  0  0
    3.0000    2.5981    0.0000 O   0  0  0  0  0  0  0  0  0  0  0  0
    0.7500    3.8971    0.0000 C   0  0  0  0  0  0  0  0  0  0  0  0
   -0.7500    3.8971    0.0000 C   0  0  0  0  0  0  0  0  0  0  0  0
   -1.5000    2.5981    0.0000 O   0  0  0  0  0  0  0  0  0  0  0  0
   -1.5000    5.1962    0.0000 C   0  0  0  0  0  0  0  0  0  0  0  0
   -0.7500    6.4952    0.0000 C   0  0  0  0  0  0  0  0  0  0  0  0
    0.7500    6.4952    0.0000 C   0  0  0  0  0  0  0  0  0  0  0  0
    1.5000    5.1962    0.0000 C   0  0  0  0  0  0  0  0  0  0  0  0
    3.0000    5.1962    0.0000 O   0  0  0  0  0  0  0  0  0  0  0  0
   -1.5000   -2.5981    0.0000 C   0  0  0  0  0  0  0  0  0  0  0  0
   -2.2500   -3.8971    0.0000 F   0  0  0  0  0  0  0  0  0  0  0  0
   -2.7990   -1.8481    0.0000 F   0  0  0  0  0  0  0  0  0  0  0  0
   -0.2010   -3.3481    0.0000 F   0  0  0  0  0  0  0  0  0  0  0  0
  1  2  1  0
  2  3  2  0
  2  4  1  0
  4  5  2  0
  5  6  1  0
  6  7  2  0
  7  8  1  0
  8  9  2  0
  9 10  1  0
 10 11  2  0
 10 12  1  0
 12 13  1  0
 13 14  2  0
 13 15  1  0
 15 16  1  0
 16 17  1  0
 17 18  1  0
 18 19  2  0
  6 20  1  0
 20 21  1  0
 20 22  1  0
 20 23  1  0
  9  4  1  0
 18 12  1  0
M  CHG  2   1  -1   2   1
M  END
$$$$
675239
     RDKit          2D

 23 25  0  0  0  0  0  0  0  0999 V2000
    3.7500   -1.2990    0.0000 O   0  0  0  0  0  1  0  0  0  0  0  0
    3.0000    0.0000    0.0000 N   0  0  0  0  0  4  0  0  0  0  0  0
    3.7500    1.2990    0.0000 O   0  0  0  0  0  0  0  0  0  0  0  0
    1.5000    0.0000    0.0000 C   0  0  0  0  0  0  0  0  0  0  0  0
    0.7500   -1.2990    0.0000 C   0  0  0  0  0  0  0  0  0  0  0  0
   -0.7500   -1.2990    0.0000 C   0  0  0  0  0  0  0  0  0  0  0  0
   -1.5000    0.0000    0.0000 C   0  0  0  0  0  0  0  0  0  0  0  0
   -0.7500    1.2990    0.0000 C   0  0  0  0  0  0  0  0  0  0  0  0
    0.7500    1.2990    0.0000 C   0  0  0  0  0  0  0  0  0  0  0  0
   -3.0000    0.0000    0.0000 C   0  0  0  0  0  0  0  0  0  0  0  0
   -3.8817   -1.2135    0.0000 O   0  0  0  0  0  0  0  0  0  0  0  0
   -5.3083   -0.7500    0.0000 C   0  0  0  0  0  0  0  0  0  0  0  0
   -6.5218   -1.6317    0.0000 C   0  0  0  0  0  0  0  0  0  0  0  0
   -7.8921   -1.0216    0.0000 N   0  0  0  0  0  0  0  0  0  0  0  0
   -9.1056   -1.9033    0.0000 N   0  0  0  0  0  0  0  0  0  0  0  0
   -9.1056   -3.4033    0.0000 C   0  0  0  0  0  0  0  0  0  0  0  0
  -10.5322   -3.8668    0.0000 C   0  0  0  0  0  0  0  0  0  0  0  0
  -10.9957   -5.2934    0.0000 O   0  0  0  0  0  0  0  0  0  0  0  0
  -11.4139   -2.6533    0.0000 N   0  0  0  0  0  0  0  0  0  0  0  0
  -10.5322   -1.4397    0.0000 C   0  0  0  0  0  0  0  0  0  0  0  0
  -10.9957   -0.0131    0.0000 O   0  0  0  0  0  0  0  0  0  0  0  0
   -5.3083    0.7500    0.0000 C   0  0  0  0  0  0  0  0  0  0  0  0
   -3.8817    1.2135    0.0000 C   0  0  0  0  0  0  0  0  0  0  0  0
  1  2  1  0
  2  3  2  0
  2  4  1  0
  4  5  2  0
  5  6  1  0
  6  7  2  0
  7  8  1  0
  8  9  2  0
  7 10  1  0
 10 11  1  0
 11 12  1  0
 12 13  1  0
 13 14  2  0
 14 15  1  0
 15 16  1  0
 16 17  1  0
 17 18  2  0
 17 19  1  0
 19 20  1  0
 20 21  2  0
 12 22  2  0
 22 23  1  0
  9  4  1  0
 23 10  2  0
 20 15  1  0
M  CHG  2   1  -1   2   1
M  END
$$$$
2465
     RDKit          2D

 22 24  0  0  0  0  0  0  0  0999 V2000
    3.7500   -1.2990    0.0000 O   0  0  0  0  0  1  0  0  0  0  0  0
    3.0000    0.0000    0.0000 N   0  0  0  0  0  4  0  0  0  0  0  0
    3.7500    1.2990    0.0000 O   0  0  0  0  0  0  0  0  0  0  0  0
    1.5000    0.0000    0.0000 C   0  0  0  0  0  0  0  0  0  0  0  0
    0.7500   -1.2990    0.0000 C   0  0  0  0  0  0  0  0  0  0  0  0
   -0.7500   -1.2990    0.0000 C   0  0  0  0  0  0  0  0  0  0  0  0
   -1.5000    0.0000    0.0000 C   0  0  0  0  0  0  0  0  0  0  0  0
   -2.9832   -0.2236    0.0000 N   0  0  0  0  0  0  0  0  0  0  0  0
   -4.0828    0.7967    0.0000 C   0  0  0  0  0  0  0  0  0  0  0  0
   -5.4791    0.2487    0.0000 O   0  0  0  0  0  0  0  0  0  0  0  0
   -3.9707    2.2925    0.0000 C   0  0  0  0  0  0  0  0  0  0  0  0
   -2.7314    3.1375    0.0000 N   0  0  0  0  0  0  0  0  0  0  0  0
   -1.2980    2.6953    0.0000 C   0  0  0  0  0  0  0  0  0  0  0  0
   -0.2778    3.7949    0.0000 C   0  0  0  0  0  0  0  0  0  0  0  0
    1.1846    3.4611    0.0000 C   0  0  0  0  0  0  0  0  0  0  0  0
    2.2049    4.5607    0.0000 C   0  0  0  0  0  0  0  0  0  0  0  0
    1.7628    5.9941    0.0000 C   0  0  0  0  0  0  0  0  0  0  0  0
    0.3004    6.3279    0.0000 C   0  0  0  0  0  0  0  0  0  0  0  0
   -0.7199    5.2283    0.0000 C   0  0  0  0  0  0  0  0  0  0  0  0
   -2.1823    5.5621    0.0000 Cl  0  0  0  0  0  0  0  0  0  0  0  0
   -0.7500    1.2990    0.0000 C   0  0  0  0  0  0  0  0  0  0  0  0
    0.7500    1.2990    0.0000 C   0  0  0  0  0  0  0  0  0  0  0  0
  1  2  1  0
  2  3  2  0
  2  4  1  0
  4  5  2  0
  5  6  1  0
  6  7  2  0
  7  8  1  0
  8  9  1  0
  9 10  2  0
  9 11  1  0
 11 12  1  0
 12 13  2  0
 13 14  1  0
 14 15  2  0
 15 16  1  0
 16 17  2  0
 17 18  1  0
 18 19  2  0
 19 20  1  0
 13 21  1  0
 21 22  2  0
 22  4  1  0
 21  7  1  0
 19 14  1  0
M  CHG  2   1  -1   2   1
M  END
$$$$
16592
     RDKit          2D

 17 18  0  0  0  0  0  0  0  0999 V2000
    3.5260   -1.2990    0.0000 O   0  0  0  0  0  1  0  0  0  0  0  0
    2.7760    0.0000    0.0000 N   0  0  0  0  0  4  0  0  0  0  0  0
    3.5260    1.2990    0.0000 O   0  0  0  0  0  0  0  0  0  0  0  0
    1.2760    0.0000    0.0000 C   0  0  0  0  0  0  0  0  0  0  0  0
    0.3943    1.2135    0.0000 O   0  0  0  0  0  0  0  0  0  0  0  0
   -1.0323    0.7500    0.0000 C   0  0  0  0  0  0  0  0  0  0  0  0
   -2.2458    1.6317    0.0000 C   0  0  0  0  0  0  0  0  0  0  0  0
   -2.0890    3.1235    0.0000 N   0  0  0  0  0  0  0  0  0  0  0  0
   -3.3025    4.0051    0.0000 N   0  0  0  0  0  0  0  0  0  0  0  0
   -4.7291    3.5416    0.0000 C   0  0  0  0  0  0  0  0  0  0  0  0
   -5.6108    4.7551    0.0000 C   0  0  0  0  0  0  0  0  0  0  0  0
   -7.1108    4.7551    0.0000 O   0  0  0  0  0  0  0  0  0  0  0  0
   -4.7291    5.9687    0.0000 N   0  0  0  0  0  0  0  0  0  0  0  0
   -3.3025    5.5051    0.0000 C   0  0  0  0  0  0  0  0  0  0  0  0
   -2.0890    6.3868    0.0000 O   0  0  0  0  0  0  0  0  0  0  0  0
   -1.0323   -0.7500    0.0000 C   0  0  0  0  0  0  0  0  0  0  0  0
    0.3943   -1.2135    0.0000 C   0  0  0  0  0  0  0  0  0  0  0  0
  1  2  1  0
  2  3  2  0
  2  4  1  0
  4  5  1  0
  5  6  1  0
  6  7  1  0
  7  8  2  0
  8  9  1  0
  9 10  1  0
 10 11  1  0
 11 12  2  0
 11 13  1  0
 13 14  1  0
 14 15  2  0
  6 16  2  0
 16 17  1  0
 17  4  2  0
 14  9  1  0
M  CHG  2   1  -1   2   1
M  END
$$$$
151310
     RDKit          2D

 16 17  0  0  0  0  0  0  0  0999 V2000
    3.5260   -1.2990    0.0000 O   0  0  0  0  0  1  0  0  0  0  0  0
    2.7760    0.0000    0.0000 N   0  0  0  0  0  4  0  0  0  0  0  0
    3.5260    1.2990    0.0000 O   0  0  0  0  0  0  0  0  0  0  0  0
    1.2760    0.0000    0.0000 C   0  0  0  0  0  0  0  0  0  0  0  0
    0.3943    1.2135    0.0000 O   0  0  0  0  0  0  0  0  0  0  0  0
   -1.0323    0.7500    0.0000 C   0  0  0  0  0  0  0  0  0  0  0  0
   -2.2458    1.6317    0.0000 C   0  0  0  0  0  0  0  0  0  0  0  0
   -2.0890    3.1235    0.0000 N   0  0  0  0  0  0  0  0  0  0  0  0
   -3.3025    4.0051    0.0000 N   0  0  0  0  0  0  0  0  0  0  0  0
   -4.7291    3.5416    0.0000 C   0  0  0  0  0  0  0  0  0  0  0  0
   -5.6108    4.7551    0.0000 C   0  0  0  0  0  0  0  0  0  0  0  0
   -4.7291    5.9687    0.0000 O   0  0  0  0  0  0  0  0  0  0  0  0
   -3.3025    5.5051    0.0000 C   0  0  0  0  0  0  0  0  0  0  0  0
   -2.0890    6.3868    0.0000 O   0  0  0  0  0  0  0  0  0  0  0  0
   -1.0323   -0.7500    0.0000 C   0  0  0  0  0  0  0  0  0  0  0  0
    0.3943   -1.2135    0.0000 C   0  0  0  0  0  0  0  0  0  0  0  0
  1  2  1  0
  2  3  2  0
  2  4  1  0
  4  5  1  0
  5  6  1  0
  6  7  1  0
  7  8  2  0
  8  9  1  0
  9 10  1  0
 10 11  1  0
 11 12  1  0
 12 13  1  0
 13 14  2  0
  6 15  2  0
 15 16  1  0
 16  4  2  0
 13  9  1  0
M  CHG  2   1  -1   2   1
M  END
$$$$
556
     RDKit          2D

 16 17  0  0  0  0  0  0  0  0999 V2000
    5.0260   -1.2990    0.0000 O   0  0  0  0  0  1  0  0  0  0  0  0
    3.5260   -1.2990    0.0000 N   0  0  0  0  0  4  0  0  0  0  0  0
    2.7760   -2.5981    0.0000 O   0  0  0  0  0  0  0  0  0  0  0  0
    2.7760    0.0000    0.0000 O   0  0  0  0  0  0  0  0  0  0  0  0
    1.2760    0.0000    0.0000 C   0  0  0  0  0  0  0  0  0  0  0  0
    0.3943    1.2135    0.0000 C   0  0  0  0  0  0  0  0  0  0  0  0
   -1.0323    0.7500    0.0000 O   0  0  0  0  0  0  0  0  0  0  0  0
   -1.0323   -0.7500    0.0000 C   0  0  0  0  0  0  0  0  0  0  0  0
   -1.9140   -1.9635    0.0000 C   0  0  0  0  0  0  0  0  0  0  0  0
   -1.0323   -3.1771    0.0000 C   0  0  0  0  0  0  0  0  0  0  0  0
    0.3943   -2.7135    0.0000 O   0  0  0  0  0  0  0  0  0  0  0  0
    0.3943   -1.2135    0.0000 C   0  0  0  0  0  0  0  0  0  0  0  0
   -3.4140   -1.9635    0.0000 O   0  0  0  0  0  0  0  0  0  0  0  0
   -4.1640   -0.6645    0.0000 N   0  0  0  0  0  4  0  0  0  0  0  0
   -3.4140    0.6346    0.0000 O   0  0  0  0  0  0  0  0  0  0  0  0
   -5.6640   -0.6645    0.0000 O   0  0  0  0  0  1  0  0  0  0  0  0
  1  2  1  0
  2  3  2  0
  2  4  1  0
  5  4  1  6
  5  6  1  0
  6  7  1  0
  8  7  1  1
  8  9  1  0
  9 10  1  0
 10 11  1  0
 12 11  1  1
  9 13  1  1
 13 14  1  0
 14 15  2  0
 14 16  1  0
 12  5  1  0
 12  8  1  0
M  CHG  4   1  -1   2   1  14   1  16  -1
M  END
$$$$
60232
     RDKit          2D

 29 32  0  0  0  0  0  0  0  0999 V2000
    7.4146   -6.0524    0.0000 O   0  0  0  0  0  1  0  0  0  0  0  0
    6.2011   -6.9341    0.0000 S   0  0  0  0  0  3  0  0  0  0  0  0
    4.8308   -6.3240    0.0000 C   0  0  0  0  0  0  0  0  0  0  0  0
    4.6740   -4.8322    0.0000 C   0  0  0  0  0  0  0  0  0  0  0  0
    3.3037   -4.2221    0.0000 C   0  0  0  0  0  0  0  0  0  0  0  0
    2.0046   -4.9721    0.0000 C   0  0  0  0  0  0  0  0  0  0  0  0
    1.8478   -6.4639    0.0000 O   0  0  0  0  0  0  0  0  0  0  0  0
    0.8899   -3.9684    0.0000 N   0  0  0  0  0  0  0  0  0  0  0  0
    1.5000   -2.5981    0.0000 N   0  0  0  0  0  0  0  0  0  0  0  0
    2.9918   -2.7549    0.0000 C   0  0  0  0  0  0  0  0  0  0  0  0
    3.9955   -1.6402    0.0000 O   0  0  0  0  0  0  0  0  0  0  0  0
    0.7500   -1.2990    0.0000 C   0  0  0  0  0  0  0  0  0  0  0  0
    1.5000    0.0000    0.0000 C   0  0  0  0  0  0  0  0  0  0  0  0
    0.7500    1.2990    0.0000 C   0  0  0  0  0  0  0  0  0  0  0  0
   -0.7500    1.2990    0.0000 C   0  0  0  0  0  0  0  0  0  0  0  0
   -1.5000    0.0000    0.0000 C   0  0  0  0  0  0  0  0  0  0  0  0
   -0.7500   -1.2990    0.0000 C   0  0  0  0  0  0  0  0  0  0  0  0
   -0.5773   -4.2803    0.0000 C   0  0  0  0  0  0  0  0  0  0  0  0
   -1.5810   -3.1655    0.0000 C   0  0  0  0  0  0  0  0  0  0  0  0
   -3.0482   -3.4774    0.0000 C   0  0  0  0  0  0  0  0  0  0  0  0
   -3.5118   -4.9040    0.0000 C   0  0  0  0  0  0  0  0  0  0  0  0
   -2.5081   -6.0187    0.0000 C   0  0  0  0  0  0  0  0  0  0  0  0
   -1.0409   -5.7068    0.0000 C   0  0  0  0  0  0  0  0  0  0  0  0
    6.3579   -8.4259    0.0000 C   0  0  0  0  0  0  0  0  0  0  0  0
    5.1443   -9.3075    0.0000 C   0  0  0  0  0  0  0  0  0  0  0  0
    5.3011  -10.7993    0.0000 C   0  0  0  0  0  0  0  0  0  0  0  0
    6.6715  -11.4094    0.0000 C   0  0  0  0  0  0  0  0  0  0  0  0
    7.8850  -10.5278    0.0000 C   0  0  0  0  0  0  0  0  0  0  0  0
    7.7282   -9.0360    0.0000 C   0  0  0  0  0  0  0  0  0  0  0  0
  1  2  1  0
  2  3  1  0
  3  4  1  0
  4  5  1  0
  5  6  1  0
  6  7  2  0
  6  8  1  0
  8  9  1  0
  9 10  1  0
 10 11  2  0
  9 12  1  0
 12 13  2  0
 13 14  1  0
 14 15  2  0
 15 16  1  0
 16 17  2  0
  8 18  1  0
 18 19  2  0
 19 20  1  0
 20 21  2  0
 21 22  1  0
 22 23  2  0
  2 24  1  0
 24 25  2  0
 25 26  1  0
 26 27  2  0
 27 28  1  0
 28 29  2  0
 10  5  1  0
 17 12  1  0
 23 18  1  0
 29 24  1  0
M  CHG  2   1  -1   2   1
M  END
$$$$
674669
     RDKit          2D

  3  0  0  0  0  0  0  0  0  0999 V2000
    0.0000    0.0000    0.0000 O   0  0  0  0  0  1  0  0  0  0  0  0
    1.0000    0.0000    0.0000 O   0  0  0  0  0  1  0  0  0  0  0  0
    0.0000    1.0000    0.0000 Mg  0  0  0  0  0 15  0  0  0  0  0  0
M  CHG  3   1  -1   2  -1   3   2
M  END
$$$$
674657
     RDKit          2D

  4  0  0  0  0  0  0  0  0  0999 V2000
    0.0000    0.0000    0.0000 O   0  0  0  0  0  1  0  0  0  0  0  0
    1.0000    0.0000    0.0000 O   0  0  0  0  0  1  0  0  0  0  0  0
    0.0000    1.0000    0.0000 O   0  0  0  0  0  1  0  0  0  0  0  0
    2.0000    0.0000    0.0000 Al  0  0  0  0  0 15  0  0  0  0  0  0
M  CHG  4   1  -1   2  -1   3  -1   4   3
M  END
$$$$
